
---------- Begin Simulation Statistics ----------
simSeconds                                   0.000915                       # Number of seconds simulated (Second)
simTicks                                    914547000                       # Number of ticks simulated (Tick)
finalTick                                   914547000                       # Number of ticks from beginning of simulation (restored from checkpoints and never reset) (Tick)
simFreq                                  1000000000000                       # The number of ticks per simulated second ((Tick/Second))
hostSeconds                                     61.56                       # Real time elapsed on the host (Second)
hostTickRate                                 14855150                       # The number of ticks simulated per host second (ticks/s) ((Tick/Second))
hostMemory                                    8529032                       # Number of bytes of host memory used (Byte)
simInsts                                      1075649                       # Number of instructions simulated (Count)
simOps                                        1075649                       # Number of ops (including micro ops) simulated (Count)
hostInstRate                                    17472                       # Simulator instruction rate (inst/s) ((Count/Second))
hostOpRate                                      17472                       # Simulator op (including micro ops) rate (op/s) ((Count/Second))
system.clk_domain.clock                          1000                       # Clock period in ticks (Tick)
system.clk_domain.voltage_domain.voltage            1                       # Voltage in Volts (Volt)
system.cpu.numCycles                           914548                       # Number of cpu cycles simulated (Cycle)
system.cpu.cpi                               0.850229                       # CPI: cycles per instruction (core level) ((Cycle/Count))
system.cpu.ipc                               1.176154                       # IPC: instructions per cycle (core level) ((Count/Cycle))
system.cpu.numWorkItemsStarted                      0                       # Number of work items this cpu started (Count)
system.cpu.numWorkItemsCompleted                    0                       # Number of work items this cpu completed (Count)
system.cpu.instsAdded                         1180877                       # Number of instructions added to the IQ (excludes non-spec) (Count)
system.cpu.nonSpecInstsAdded                      644                       # Number of non-speculative instructions added to the IQ (Count)
system.cpu.instsIssued                        1265389                       # Number of instructions issued (Count)
system.cpu.squashedInstsIssued                    332                       # Number of squashed instructions issued (Count)
system.cpu.squashedInstsExamined               105810                       # Number of squashed instructions iterated over during squash; mainly for profiling (Count)
system.cpu.squashedOperandsExamined             66903                       # Number of squashed operands that are examined and possibly removed from graph (Count)
system.cpu.squashedNonSpecRemoved                  11                       # Number of squashed non-spec instructions that were removed (Count)
system.cpu.numIssuedDist::samples              913800                       # Number of insts issued each cycle (Count)
system.cpu.numIssuedDist::mean               1.384755                       # Number of insts issued each cycle (Count)
system.cpu.numIssuedDist::stdev              2.144353                       # Number of insts issued each cycle (Count)
system.cpu.numIssuedDist::underflows                0      0.00%      0.00% # Number of insts issued each cycle (Count)
system.cpu.numIssuedDist::0                    560602     61.35%     61.35% # Number of insts issued each cycle (Count)
system.cpu.numIssuedDist::1                     61640      6.75%     68.09% # Number of insts issued each cycle (Count)
system.cpu.numIssuedDist::2                     62205      6.81%     74.90% # Number of insts issued each cycle (Count)
system.cpu.numIssuedDist::3                     60492      6.62%     81.52% # Number of insts issued each cycle (Count)
system.cpu.numIssuedDist::4                     69328      7.59%     89.11% # Number of insts issued each cycle (Count)
system.cpu.numIssuedDist::5                     32738      3.58%     92.69% # Number of insts issued each cycle (Count)
system.cpu.numIssuedDist::6                     29574      3.24%     95.93% # Number of insts issued each cycle (Count)
system.cpu.numIssuedDist::7                     18351      2.01%     97.93% # Number of insts issued each cycle (Count)
system.cpu.numIssuedDist::8                     18870      2.07%    100.00% # Number of insts issued each cycle (Count)
system.cpu.numIssuedDist::overflows                 0      0.00%    100.00% # Number of insts issued each cycle (Count)
system.cpu.numIssuedDist::min_value                 0                       # Number of insts issued each cycle (Count)
system.cpu.numIssuedDist::max_value                 8                       # Number of insts issued each cycle (Count)
system.cpu.numIssuedDist::total                913800                       # Number of insts issued each cycle (Count)
system.cpu.statFuBusy::No_OpClass                   0      0.00%      0.00% # attempts to use FU when none available (Count)
system.cpu.statFuBusy::IntAlu                    7184     19.22%     19.22% # attempts to use FU when none available (Count)
system.cpu.statFuBusy::IntMult                      0      0.00%     19.22% # attempts to use FU when none available (Count)
system.cpu.statFuBusy::IntDiv                       0      0.00%     19.22% # attempts to use FU when none available (Count)
system.cpu.statFuBusy::ByteMult                     0      0.00%     19.22% # attempts to use FU when none available (Count)
system.cpu.statFuBusy::ByteDiv                      0      0.00%     19.22% # attempts to use FU when none available (Count)
system.cpu.statFuBusy::FloatAdd                     0      0.00%     19.22% # attempts to use FU when none available (Count)
system.cpu.statFuBusy::FloatCmp                     0      0.00%     19.22% # attempts to use FU when none available (Count)
system.cpu.statFuBusy::FloatCvt                     0      0.00%     19.22% # attempts to use FU when none available (Count)
system.cpu.statFuBusy::FloatMult                    0      0.00%     19.22% # attempts to use FU when none available (Count)
system.cpu.statFuBusy::FloatMultAcc                 0      0.00%     19.22% # attempts to use FU when none available (Count)
system.cpu.statFuBusy::FloatDiv                     0      0.00%     19.22% # attempts to use FU when none available (Count)
system.cpu.statFuBusy::FloatMisc                    0      0.00%     19.22% # attempts to use FU when none available (Count)
system.cpu.statFuBusy::FloatSqrt                    0      0.00%     19.22% # attempts to use FU when none available (Count)
system.cpu.statFuBusy::SimdAdd                      0      0.00%     19.22% # attempts to use FU when none available (Count)
system.cpu.statFuBusy::SimdAddAcc                   0      0.00%     19.22% # attempts to use FU when none available (Count)
system.cpu.statFuBusy::SimdAlu                      0      0.00%     19.22% # attempts to use FU when none available (Count)
system.cpu.statFuBusy::SimdCmp                      0      0.00%     19.22% # attempts to use FU when none available (Count)
system.cpu.statFuBusy::SimdCvt                      0      0.00%     19.22% # attempts to use FU when none available (Count)
system.cpu.statFuBusy::SimdMisc                     0      0.00%     19.22% # attempts to use FU when none available (Count)
system.cpu.statFuBusy::SimdMult                     0      0.00%     19.22% # attempts to use FU when none available (Count)
system.cpu.statFuBusy::SimdMultAcc                  0      0.00%     19.22% # attempts to use FU when none available (Count)
system.cpu.statFuBusy::SimdMatMultAcc               0      0.00%     19.22% # attempts to use FU when none available (Count)
system.cpu.statFuBusy::SimdShift                    0      0.00%     19.22% # attempts to use FU when none available (Count)
system.cpu.statFuBusy::SimdShiftAcc                 0      0.00%     19.22% # attempts to use FU when none available (Count)
system.cpu.statFuBusy::SimdDiv                      0      0.00%     19.22% # attempts to use FU when none available (Count)
system.cpu.statFuBusy::SimdSqrt                     0      0.00%     19.22% # attempts to use FU when none available (Count)
system.cpu.statFuBusy::SimdFloatAdd                 0      0.00%     19.22% # attempts to use FU when none available (Count)
system.cpu.statFuBusy::SimdFloatAlu                 0      0.00%     19.22% # attempts to use FU when none available (Count)
system.cpu.statFuBusy::SimdFloatCmp                 0      0.00%     19.22% # attempts to use FU when none available (Count)
system.cpu.statFuBusy::SimdFloatCvt                 0      0.00%     19.22% # attempts to use FU when none available (Count)
system.cpu.statFuBusy::SimdFloatDiv                 0      0.00%     19.22% # attempts to use FU when none available (Count)
system.cpu.statFuBusy::SimdFloatMisc                0      0.00%     19.22% # attempts to use FU when none available (Count)
system.cpu.statFuBusy::SimdFloatMult                0      0.00%     19.22% # attempts to use FU when none available (Count)
system.cpu.statFuBusy::SimdFloatMultAcc             0      0.00%     19.22% # attempts to use FU when none available (Count)
system.cpu.statFuBusy::SimdFloatMatMultAcc            0      0.00%     19.22% # attempts to use FU when none available (Count)
system.cpu.statFuBusy::SimdFloatSqrt                0      0.00%     19.22% # attempts to use FU when none available (Count)
system.cpu.statFuBusy::SimdReduceAdd                0      0.00%     19.22% # attempts to use FU when none available (Count)
system.cpu.statFuBusy::SimdReduceAlu                0      0.00%     19.22% # attempts to use FU when none available (Count)
system.cpu.statFuBusy::SimdReduceCmp                0      0.00%     19.22% # attempts to use FU when none available (Count)
system.cpu.statFuBusy::SimdFloatReduceAdd            0      0.00%     19.22% # attempts to use FU when none available (Count)
system.cpu.statFuBusy::SimdFloatReduceCmp            0      0.00%     19.22% # attempts to use FU when none available (Count)
system.cpu.statFuBusy::SimdAes                      0      0.00%     19.22% # attempts to use FU when none available (Count)
system.cpu.statFuBusy::SimdAesMix                   0      0.00%     19.22% # attempts to use FU when none available (Count)
system.cpu.statFuBusy::SimdSha1Hash                 0      0.00%     19.22% # attempts to use FU when none available (Count)
system.cpu.statFuBusy::SimdSha1Hash2                0      0.00%     19.22% # attempts to use FU when none available (Count)
system.cpu.statFuBusy::SimdSha256Hash               0      0.00%     19.22% # attempts to use FU when none available (Count)
system.cpu.statFuBusy::SimdSha256Hash2              0      0.00%     19.22% # attempts to use FU when none available (Count)
system.cpu.statFuBusy::SimdShaSigma2                0      0.00%     19.22% # attempts to use FU when none available (Count)
system.cpu.statFuBusy::SimdShaSigma3                0      0.00%     19.22% # attempts to use FU when none available (Count)
system.cpu.statFuBusy::SimdPredAlu                  0      0.00%     19.22% # attempts to use FU when none available (Count)
system.cpu.statFuBusy::Matrix                       0      0.00%     19.22% # attempts to use FU when none available (Count)
system.cpu.statFuBusy::MatrixMov                    0      0.00%     19.22% # attempts to use FU when none available (Count)
system.cpu.statFuBusy::MatrixOP                     0      0.00%     19.22% # attempts to use FU when none available (Count)
system.cpu.statFuBusy::MemRead                  23184     62.02%     81.23% # attempts to use FU when none available (Count)
system.cpu.statFuBusy::MemWrite                  7015     18.77%    100.00% # attempts to use FU when none available (Count)
system.cpu.statFuBusy::FloatMemRead                 0      0.00%    100.00% # attempts to use FU when none available (Count)
system.cpu.statFuBusy::FloatMemWrite                0      0.00%    100.00% # attempts to use FU when none available (Count)
system.cpu.statFuBusy::IprAccess                    0      0.00%    100.00% # attempts to use FU when none available (Count)
system.cpu.statFuBusy::InstPrefetch                 0      0.00%    100.00% # attempts to use FU when none available (Count)
system.cpu.statFuBusy::VectorUnitStrideLoad            0      0.00%    100.00% # attempts to use FU when none available (Count)
system.cpu.statFuBusy::VectorUnitStrideStore            0      0.00%    100.00% # attempts to use FU when none available (Count)
system.cpu.statFuBusy::VectorUnitStrideMaskLoad            0      0.00%    100.00% # attempts to use FU when none available (Count)
system.cpu.statFuBusy::VectorUnitStrideMaskStore            0      0.00%    100.00% # attempts to use FU when none available (Count)
system.cpu.statFuBusy::VectorStridedLoad            0      0.00%    100.00% # attempts to use FU when none available (Count)
system.cpu.statFuBusy::VectorStridedStore            0      0.00%    100.00% # attempts to use FU when none available (Count)
system.cpu.statFuBusy::VectorIndexedLoad            0      0.00%    100.00% # attempts to use FU when none available (Count)
system.cpu.statFuBusy::VectorIndexedStore            0      0.00%    100.00% # attempts to use FU when none available (Count)
system.cpu.statFuBusy::VectorUnitStrideFaultOnlyFirstLoad            0      0.00%    100.00% # attempts to use FU when none available (Count)
system.cpu.statFuBusy::VectorWholeRegisterLoad            0      0.00%    100.00% # attempts to use FU when none available (Count)
system.cpu.statFuBusy::VectorWholeRegisterStore            0      0.00%    100.00% # attempts to use FU when none available (Count)
system.cpu.statFuBusy::VectorIntegerArith            0      0.00%    100.00% # attempts to use FU when none available (Count)
system.cpu.statFuBusy::VectorFloatArith             0      0.00%    100.00% # attempts to use FU when none available (Count)
system.cpu.statFuBusy::VectorFloatConvert            0      0.00%    100.00% # attempts to use FU when none available (Count)
system.cpu.statFuBusy::VectorIntegerReduce            0      0.00%    100.00% # attempts to use FU when none available (Count)
system.cpu.statFuBusy::VectorFloatReduce            0      0.00%    100.00% # attempts to use FU when none available (Count)
system.cpu.statFuBusy::VectorMisc                   0      0.00%    100.00% # attempts to use FU when none available (Count)
system.cpu.statFuBusy::VectorIntegerExtension            0      0.00%    100.00% # attempts to use FU when none available (Count)
system.cpu.statFuBusy::VectorConfig                 0      0.00%    100.00% # attempts to use FU when none available (Count)
system.cpu.statIssuedInstType_0::No_OpClass          633      0.05%      0.05% # Number of instructions issued per FU type, per thread (Count)
system.cpu.statIssuedInstType_0::IntAlu        832961     65.83%     65.88% # Number of instructions issued per FU type, per thread (Count)
system.cpu.statIssuedInstType_0::IntMult            0      0.00%     65.88% # Number of instructions issued per FU type, per thread (Count)
system.cpu.statIssuedInstType_0::IntDiv             0      0.00%     65.88% # Number of instructions issued per FU type, per thread (Count)
system.cpu.statIssuedInstType_0::ByteMult            0      0.00%     65.88% # Number of instructions issued per FU type, per thread (Count)
system.cpu.statIssuedInstType_0::ByteDiv            0      0.00%     65.88% # Number of instructions issued per FU type, per thread (Count)
system.cpu.statIssuedInstType_0::FloatAdd            0      0.00%     65.88% # Number of instructions issued per FU type, per thread (Count)
system.cpu.statIssuedInstType_0::FloatCmp            0      0.00%     65.88% # Number of instructions issued per FU type, per thread (Count)
system.cpu.statIssuedInstType_0::FloatCvt            0      0.00%     65.88% # Number of instructions issued per FU type, per thread (Count)
system.cpu.statIssuedInstType_0::FloatMult            0      0.00%     65.88% # Number of instructions issued per FU type, per thread (Count)
system.cpu.statIssuedInstType_0::FloatMultAcc            0      0.00%     65.88% # Number of instructions issued per FU type, per thread (Count)
system.cpu.statIssuedInstType_0::FloatDiv            0      0.00%     65.88% # Number of instructions issued per FU type, per thread (Count)
system.cpu.statIssuedInstType_0::FloatMisc            0      0.00%     65.88% # Number of instructions issued per FU type, per thread (Count)
system.cpu.statIssuedInstType_0::FloatSqrt            0      0.00%     65.88% # Number of instructions issued per FU type, per thread (Count)
system.cpu.statIssuedInstType_0::SimdAdd            0      0.00%     65.88% # Number of instructions issued per FU type, per thread (Count)
system.cpu.statIssuedInstType_0::SimdAddAcc            0      0.00%     65.88% # Number of instructions issued per FU type, per thread (Count)
system.cpu.statIssuedInstType_0::SimdAlu            0      0.00%     65.88% # Number of instructions issued per FU type, per thread (Count)
system.cpu.statIssuedInstType_0::SimdCmp            0      0.00%     65.88% # Number of instructions issued per FU type, per thread (Count)
system.cpu.statIssuedInstType_0::SimdCvt            0      0.00%     65.88% # Number of instructions issued per FU type, per thread (Count)
system.cpu.statIssuedInstType_0::SimdMisc            0      0.00%     65.88% # Number of instructions issued per FU type, per thread (Count)
system.cpu.statIssuedInstType_0::SimdMult            0      0.00%     65.88% # Number of instructions issued per FU type, per thread (Count)
system.cpu.statIssuedInstType_0::SimdMultAcc            0      0.00%     65.88% # Number of instructions issued per FU type, per thread (Count)
system.cpu.statIssuedInstType_0::SimdMatMultAcc            0      0.00%     65.88% # Number of instructions issued per FU type, per thread (Count)
system.cpu.statIssuedInstType_0::SimdShift            0      0.00%     65.88% # Number of instructions issued per FU type, per thread (Count)
system.cpu.statIssuedInstType_0::SimdShiftAcc            0      0.00%     65.88% # Number of instructions issued per FU type, per thread (Count)
system.cpu.statIssuedInstType_0::SimdDiv            0      0.00%     65.88% # Number of instructions issued per FU type, per thread (Count)
system.cpu.statIssuedInstType_0::SimdSqrt            0      0.00%     65.88% # Number of instructions issued per FU type, per thread (Count)
system.cpu.statIssuedInstType_0::SimdFloatAdd            0      0.00%     65.88% # Number of instructions issued per FU type, per thread (Count)
system.cpu.statIssuedInstType_0::SimdFloatAlu            0      0.00%     65.88% # Number of instructions issued per FU type, per thread (Count)
system.cpu.statIssuedInstType_0::SimdFloatCmp            0      0.00%     65.88% # Number of instructions issued per FU type, per thread (Count)
system.cpu.statIssuedInstType_0::SimdFloatCvt            0      0.00%     65.88% # Number of instructions issued per FU type, per thread (Count)
system.cpu.statIssuedInstType_0::SimdFloatDiv            0      0.00%     65.88% # Number of instructions issued per FU type, per thread (Count)
system.cpu.statIssuedInstType_0::SimdFloatMisc            0      0.00%     65.88% # Number of instructions issued per FU type, per thread (Count)
system.cpu.statIssuedInstType_0::SimdFloatMult            0      0.00%     65.88% # Number of instructions issued per FU type, per thread (Count)
system.cpu.statIssuedInstType_0::SimdFloatMultAcc            0      0.00%     65.88% # Number of instructions issued per FU type, per thread (Count)
system.cpu.statIssuedInstType_0::SimdFloatMatMultAcc            0      0.00%     65.88% # Number of instructions issued per FU type, per thread (Count)
system.cpu.statIssuedInstType_0::SimdFloatSqrt            0      0.00%     65.88% # Number of instructions issued per FU type, per thread (Count)
system.cpu.statIssuedInstType_0::SimdReduceAdd            0      0.00%     65.88% # Number of instructions issued per FU type, per thread (Count)
system.cpu.statIssuedInstType_0::SimdReduceAlu            0      0.00%     65.88% # Number of instructions issued per FU type, per thread (Count)
system.cpu.statIssuedInstType_0::SimdReduceCmp            0      0.00%     65.88% # Number of instructions issued per FU type, per thread (Count)
system.cpu.statIssuedInstType_0::SimdFloatReduceAdd            0      0.00%     65.88% # Number of instructions issued per FU type, per thread (Count)
system.cpu.statIssuedInstType_0::SimdFloatReduceCmp            0      0.00%     65.88% # Number of instructions issued per FU type, per thread (Count)
system.cpu.statIssuedInstType_0::SimdAes            0      0.00%     65.88% # Number of instructions issued per FU type, per thread (Count)
system.cpu.statIssuedInstType_0::SimdAesMix            0      0.00%     65.88% # Number of instructions issued per FU type, per thread (Count)
system.cpu.statIssuedInstType_0::SimdSha1Hash            0      0.00%     65.88% # Number of instructions issued per FU type, per thread (Count)
system.cpu.statIssuedInstType_0::SimdSha1Hash2            0      0.00%     65.88% # Number of instructions issued per FU type, per thread (Count)
system.cpu.statIssuedInstType_0::SimdSha256Hash            0      0.00%     65.88% # Number of instructions issued per FU type, per thread (Count)
system.cpu.statIssuedInstType_0::SimdSha256Hash2            0      0.00%     65.88% # Number of instructions issued per FU type, per thread (Count)
system.cpu.statIssuedInstType_0::SimdShaSigma2            0      0.00%     65.88% # Number of instructions issued per FU type, per thread (Count)
system.cpu.statIssuedInstType_0::SimdShaSigma3            0      0.00%     65.88% # Number of instructions issued per FU type, per thread (Count)
system.cpu.statIssuedInstType_0::SimdPredAlu            0      0.00%     65.88% # Number of instructions issued per FU type, per thread (Count)
system.cpu.statIssuedInstType_0::Matrix             0      0.00%     65.88% # Number of instructions issued per FU type, per thread (Count)
system.cpu.statIssuedInstType_0::MatrixMov            0      0.00%     65.88% # Number of instructions issued per FU type, per thread (Count)
system.cpu.statIssuedInstType_0::MatrixOP            0      0.00%     65.88% # Number of instructions issued per FU type, per thread (Count)
system.cpu.statIssuedInstType_0::MemRead       294810     23.30%     89.17% # Number of instructions issued per FU type, per thread (Count)
system.cpu.statIssuedInstType_0::MemWrite       136985     10.83%    100.00% # Number of instructions issued per FU type, per thread (Count)
system.cpu.statIssuedInstType_0::FloatMemRead            0      0.00%    100.00% # Number of instructions issued per FU type, per thread (Count)
system.cpu.statIssuedInstType_0::FloatMemWrite            0      0.00%    100.00% # Number of instructions issued per FU type, per thread (Count)
system.cpu.statIssuedInstType_0::IprAccess            0      0.00%    100.00% # Number of instructions issued per FU type, per thread (Count)
system.cpu.statIssuedInstType_0::InstPrefetch            0      0.00%    100.00% # Number of instructions issued per FU type, per thread (Count)
system.cpu.statIssuedInstType_0::VectorUnitStrideLoad            0      0.00%    100.00% # Number of instructions issued per FU type, per thread (Count)
system.cpu.statIssuedInstType_0::VectorUnitStrideStore            0      0.00%    100.00% # Number of instructions issued per FU type, per thread (Count)
system.cpu.statIssuedInstType_0::VectorUnitStrideMaskLoad            0      0.00%    100.00% # Number of instructions issued per FU type, per thread (Count)
system.cpu.statIssuedInstType_0::VectorUnitStrideMaskStore            0      0.00%    100.00% # Number of instructions issued per FU type, per thread (Count)
system.cpu.statIssuedInstType_0::VectorStridedLoad            0      0.00%    100.00% # Number of instructions issued per FU type, per thread (Count)
system.cpu.statIssuedInstType_0::VectorStridedStore            0      0.00%    100.00% # Number of instructions issued per FU type, per thread (Count)
system.cpu.statIssuedInstType_0::VectorIndexedLoad            0      0.00%    100.00% # Number of instructions issued per FU type, per thread (Count)
system.cpu.statIssuedInstType_0::VectorIndexedStore            0      0.00%    100.00% # Number of instructions issued per FU type, per thread (Count)
system.cpu.statIssuedInstType_0::VectorUnitStrideFaultOnlyFirstLoad            0      0.00%    100.00% # Number of instructions issued per FU type, per thread (Count)
system.cpu.statIssuedInstType_0::VectorWholeRegisterLoad            0      0.00%    100.00% # Number of instructions issued per FU type, per thread (Count)
system.cpu.statIssuedInstType_0::VectorWholeRegisterStore            0      0.00%    100.00% # Number of instructions issued per FU type, per thread (Count)
system.cpu.statIssuedInstType_0::VectorIntegerArith            0      0.00%    100.00% # Number of instructions issued per FU type, per thread (Count)
system.cpu.statIssuedInstType_0::VectorFloatArith            0      0.00%    100.00% # Number of instructions issued per FU type, per thread (Count)
system.cpu.statIssuedInstType_0::VectorFloatConvert            0      0.00%    100.00% # Number of instructions issued per FU type, per thread (Count)
system.cpu.statIssuedInstType_0::VectorIntegerReduce            0      0.00%    100.00% # Number of instructions issued per FU type, per thread (Count)
system.cpu.statIssuedInstType_0::VectorFloatReduce            0      0.00%    100.00% # Number of instructions issued per FU type, per thread (Count)
system.cpu.statIssuedInstType_0::VectorMisc            0      0.00%    100.00% # Number of instructions issued per FU type, per thread (Count)
system.cpu.statIssuedInstType_0::VectorIntegerExtension            0      0.00%    100.00% # Number of instructions issued per FU type, per thread (Count)
system.cpu.statIssuedInstType_0::VectorConfig            0      0.00%    100.00% # Number of instructions issued per FU type, per thread (Count)
system.cpu.statIssuedInstType_0::total        1265389                       # Number of instructions issued per FU type, per thread (Count)
system.cpu.issueRate                         1.383622                       # Inst issue rate ((Count/Cycle))
system.cpu.fuBusy                               37383                       # FU busy when requested (Count)
system.cpu.fuBusyRate                        0.029543                       # FU busy rate (busy events/executed inst) ((Count/Count))
system.cpu.intInstQueueReads                  3482292                       # Number of integer instruction queue reads (Count)
system.cpu.intInstQueueWrites                 1287340                       # Number of integer instruction queue writes (Count)
system.cpu.intInstQueueWakeupAccesses         1132671                       # Number of integer instruction queue wakeup accesses (Count)
system.cpu.fpInstQueueReads                         0                       # Number of floating instruction queue reads (Count)
system.cpu.fpInstQueueWrites                        0                       # Number of floating instruction queue writes (Count)
system.cpu.fpInstQueueWakeupAccesses                0                       # Number of floating instruction queue wakeup accesses (Count)
system.cpu.vecInstQueueReads                        0                       # Number of vector instruction queue reads (Count)
system.cpu.vecInstQueueWrites                       0                       # Number of vector instruction queue writes (Count)
system.cpu.vecInstQueueWakeupAccesses               0                       # Number of vector instruction queue wakeup accesses (Count)
system.cpu.intAluAccesses                     1302139                       # Number of integer alu accesses (Count)
system.cpu.fpAluAccesses                            0                       # Number of floating point alu accesses (Count)
system.cpu.vecAluAccesses                           0                       # Number of vector alu accesses (Count)
system.cpu.numSquashedInsts                      1343                       # Number of squashed instructions skipped in execute (Count)
system.cpu.numSwp                                   0                       # Number of swp insts executed (Count)
system.cpu.timesIdled                              22                       # Number of times that the entire CPU went into an idle state and unscheduled itself (Count)
system.cpu.idleCycles                             748                       # Total number of cycles that the CPU has spent unscheduled due to idling (Cycle)
system.cpu.MemDepUnit__0.insertedLoads         173497                       # Number of loads inserted to the mem dependence unit. (Count)
system.cpu.MemDepUnit__0.insertedStores        145664                       # Number of stores inserted to the mem dependence unit. (Count)
system.cpu.MemDepUnit__0.conflictingLoads        43278                       # Number of conflicting loads. (Count)
system.cpu.MemDepUnit__0.conflictingStores        22730                       # Number of conflicting stores. (Count)
system.cpu.MemDepUnit__1.insertedLoads              0                       # Number of loads inserted to the mem dependence unit. (Count)
system.cpu.MemDepUnit__1.insertedStores             0                       # Number of stores inserted to the mem dependence unit. (Count)
system.cpu.MemDepUnit__1.conflictingLoads            0                       # Number of conflicting loads. (Count)
system.cpu.MemDepUnit__1.conflictingStores            0                       # Number of conflicting stores. (Count)
system.cpu.MemDepUnit__2.insertedLoads              0                       # Number of loads inserted to the mem dependence unit. (Count)
system.cpu.MemDepUnit__2.insertedStores             0                       # Number of stores inserted to the mem dependence unit. (Count)
system.cpu.MemDepUnit__2.conflictingLoads            0                       # Number of conflicting loads. (Count)
system.cpu.MemDepUnit__2.conflictingStores            0                       # Number of conflicting stores. (Count)
system.cpu.MemDepUnit__3.insertedLoads              0                       # Number of loads inserted to the mem dependence unit. (Count)
system.cpu.MemDepUnit__3.insertedStores             0                       # Number of stores inserted to the mem dependence unit. (Count)
system.cpu.MemDepUnit__3.conflictingLoads            0                       # Number of conflicting loads. (Count)
system.cpu.MemDepUnit__3.conflictingStores            0                       # Number of conflicting stores. (Count)
system.cpu.branchPred.lookups_0::NoBranch            0      0.00%      0.00% # Number of BP lookups (Count)
system.cpu.branchPred.lookups_0::Return         50107     15.20%     15.20% # Number of BP lookups (Count)
system.cpu.branchPred.lookups_0::CallDirect        49002     14.86%     30.06% # Number of BP lookups (Count)
system.cpu.branchPred.lookups_0::CallIndirect           55      0.02%     30.08% # Number of BP lookups (Count)
system.cpu.branchPred.lookups_0::DirectCond       182143     55.25%     85.33% # Number of BP lookups (Count)
system.cpu.branchPred.lookups_0::DirectUncond        48379     14.67%    100.00% # Number of BP lookups (Count)
system.cpu.branchPred.lookups_0::IndirectCond            0      0.00%    100.00% # Number of BP lookups (Count)
system.cpu.branchPred.lookups_0::IndirectUncond            2      0.00%    100.00% # Number of BP lookups (Count)
system.cpu.branchPred.lookups_0::total         329688                       # Number of BP lookups (Count)
system.cpu.branchPred.squashes_0::NoBranch            0      0.00%      0.00% # Number of branches that got squashed (completely removed) as an earlier branch was mispredicted. (Count)
system.cpu.branchPred.squashes_0::Return         8513     17.28%     17.28% # Number of branches that got squashed (completely removed) as an earlier branch was mispredicted. (Count)
system.cpu.branchPred.squashes_0::CallDirect         7409     15.04%     32.32% # Number of branches that got squashed (completely removed) as an earlier branch was mispredicted. (Count)
system.cpu.branchPred.squashes_0::CallIndirect           52      0.11%     32.42% # Number of branches that got squashed (completely removed) as an earlier branch was mispredicted. (Count)
system.cpu.branchPred.squashes_0::DirectCond        26505     53.80%     86.22% # Number of branches that got squashed (completely removed) as an earlier branch was mispredicted. (Count)
system.cpu.branchPred.squashes_0::DirectUncond         6787     13.78%    100.00% # Number of branches that got squashed (completely removed) as an earlier branch was mispredicted. (Count)
system.cpu.branchPred.squashes_0::IndirectCond            0      0.00%    100.00% # Number of branches that got squashed (completely removed) as an earlier branch was mispredicted. (Count)
system.cpu.branchPred.squashes_0::IndirectUncond            1      0.00%    100.00% # Number of branches that got squashed (completely removed) as an earlier branch was mispredicted. (Count)
system.cpu.branchPred.squashes_0::total         49267                       # Number of branches that got squashed (completely removed) as an earlier branch was mispredicted. (Count)
system.cpu.branchPred.corrected_0::NoBranch            0      0.00%      0.00% # Number of branches that got corrected but not yet commited. Branches get corrected by decode or after execute. Also a branch misprediction can be detected out-of-order. Therefore, a corrected branch might not end up beeing committed in case an even earlier branch was mispredicted (Count)
system.cpu.branchPred.corrected_0::Return            1      0.13%      0.13% # Number of branches that got corrected but not yet commited. Branches get corrected by decode or after execute. Also a branch misprediction can be detected out-of-order. Therefore, a corrected branch might not end up beeing committed in case an even earlier branch was mispredicted (Count)
system.cpu.branchPred.corrected_0::CallDirect           18      2.39%      2.52% # Number of branches that got corrected but not yet commited. Branches get corrected by decode or after execute. Also a branch misprediction can be detected out-of-order. Therefore, a corrected branch might not end up beeing committed in case an even earlier branch was mispredicted (Count)
system.cpu.branchPred.corrected_0::CallIndirect            3      0.40%      2.92% # Number of branches that got corrected but not yet commited. Branches get corrected by decode or after execute. Also a branch misprediction can be detected out-of-order. Therefore, a corrected branch might not end up beeing committed in case an even earlier branch was mispredicted (Count)
system.cpu.branchPred.corrected_0::DirectCond          714     94.69%     97.61% # Number of branches that got corrected but not yet commited. Branches get corrected by decode or after execute. Also a branch misprediction can be detected out-of-order. Therefore, a corrected branch might not end up beeing committed in case an even earlier branch was mispredicted (Count)
system.cpu.branchPred.corrected_0::DirectUncond           16      2.12%     99.73% # Number of branches that got corrected but not yet commited. Branches get corrected by decode or after execute. Also a branch misprediction can be detected out-of-order. Therefore, a corrected branch might not end up beeing committed in case an even earlier branch was mispredicted (Count)
system.cpu.branchPred.corrected_0::IndirectCond            0      0.00%     99.73% # Number of branches that got corrected but not yet commited. Branches get corrected by decode or after execute. Also a branch misprediction can be detected out-of-order. Therefore, a corrected branch might not end up beeing committed in case an even earlier branch was mispredicted (Count)
system.cpu.branchPred.corrected_0::IndirectUncond            2      0.27%    100.00% # Number of branches that got corrected but not yet commited. Branches get corrected by decode or after execute. Also a branch misprediction can be detected out-of-order. Therefore, a corrected branch might not end up beeing committed in case an even earlier branch was mispredicted (Count)
system.cpu.branchPred.corrected_0::total          754                       # Number of branches that got corrected but not yet commited. Branches get corrected by decode or after execute. Also a branch misprediction can be detected out-of-order. Therefore, a corrected branch might not end up beeing committed in case an even earlier branch was mispredicted (Count)
system.cpu.branchPred.earlyResteers_0::NoBranch            0                       # Number of branches that got redirected after decode. (Count)
system.cpu.branchPred.earlyResteers_0::Return            0                       # Number of branches that got redirected after decode. (Count)
system.cpu.branchPred.earlyResteers_0::CallDirect            0                       # Number of branches that got redirected after decode. (Count)
system.cpu.branchPred.earlyResteers_0::CallIndirect            0                       # Number of branches that got redirected after decode. (Count)
system.cpu.branchPred.earlyResteers_0::DirectCond            0                       # Number of branches that got redirected after decode. (Count)
system.cpu.branchPred.earlyResteers_0::DirectUncond            0                       # Number of branches that got redirected after decode. (Count)
system.cpu.branchPred.earlyResteers_0::IndirectCond            0                       # Number of branches that got redirected after decode. (Count)
system.cpu.branchPred.earlyResteers_0::IndirectUncond            0                       # Number of branches that got redirected after decode. (Count)
system.cpu.branchPred.earlyResteers_0::total            0                       # Number of branches that got redirected after decode. (Count)
system.cpu.branchPred.committed_0::NoBranch            0      0.00%      0.00% # Number of branches finally committed  (Count)
system.cpu.branchPred.committed_0::Return        41591     14.83%     14.83% # Number of branches finally committed  (Count)
system.cpu.branchPred.committed_0::CallDirect        41590     14.83%     29.67% # Number of branches finally committed  (Count)
system.cpu.branchPred.committed_0::CallIndirect            3      0.00%     29.67% # Number of branches finally committed  (Count)
system.cpu.branchPred.committed_0::DirectCond       155627     55.50%     85.17% # Number of branches finally committed  (Count)
system.cpu.branchPred.committed_0::DirectUncond        41589     14.83%    100.00% # Number of branches finally committed  (Count)
system.cpu.branchPred.committed_0::IndirectCond            0      0.00%    100.00% # Number of branches finally committed  (Count)
system.cpu.branchPred.committed_0::IndirectUncond            1      0.00%    100.00% # Number of branches finally committed  (Count)
system.cpu.branchPred.committed_0::total       280401                       # Number of branches finally committed  (Count)
system.cpu.branchPred.mispredicted_0::NoBranch            0      0.00%      0.00% # Number of committed branches that were mispredicted. (Count)
system.cpu.branchPred.mispredicted_0::Return            1      0.14%      0.14% # Number of committed branches that were mispredicted. (Count)
system.cpu.branchPred.mispredicted_0::CallDirect            5      0.71%      0.85% # Number of committed branches that were mispredicted. (Count)
system.cpu.branchPred.mispredicted_0::CallIndirect            3      0.42%      1.27% # Number of committed branches that were mispredicted. (Count)
system.cpu.branchPred.mispredicted_0::DirectCond          691     97.60%     98.87% # Number of committed branches that were mispredicted. (Count)
system.cpu.branchPred.mispredicted_0::DirectUncond            7      0.99%     99.86% # Number of committed branches that were mispredicted. (Count)
system.cpu.branchPred.mispredicted_0::IndirectCond            0      0.00%     99.86% # Number of committed branches that were mispredicted. (Count)
system.cpu.branchPred.mispredicted_0::IndirectUncond            1      0.14%    100.00% # Number of committed branches that were mispredicted. (Count)
system.cpu.branchPred.mispredicted_0::total          708                       # Number of committed branches that were mispredicted. (Count)
system.cpu.branchPred.targetProvider_0::NoTarget        57346     17.39%     17.39% # The component providing the target for taken branches (Count)
system.cpu.branchPred.targetProvider_0::BTB       222234     67.41%     84.80% # The component providing the target for taken branches (Count)
system.cpu.branchPred.targetProvider_0::RAS        50107     15.20%    100.00% # The component providing the target for taken branches (Count)
system.cpu.branchPred.targetProvider_0::Indirect            1      0.00%    100.00% # The component providing the target for taken branches (Count)
system.cpu.branchPred.targetProvider_0::total       329688                       # The component providing the target for taken branches (Count)
system.cpu.branchPred.targetWrong_0::NoBranch          536     71.09%     71.09% # Number of branches where the target was incorrect or not available at prediction time. (Count)
system.cpu.branchPred.targetWrong_0::Return          217     28.78%     99.87% # Number of branches where the target was incorrect or not available at prediction time. (Count)
system.cpu.branchPred.targetWrong_0::CallDirect            1      0.13%    100.00% # Number of branches where the target was incorrect or not available at prediction time. (Count)
system.cpu.branchPred.targetWrong_0::CallIndirect            0      0.00%    100.00% # Number of branches where the target was incorrect or not available at prediction time. (Count)
system.cpu.branchPred.targetWrong_0::DirectCond            0      0.00%    100.00% # Number of branches where the target was incorrect or not available at prediction time. (Count)
system.cpu.branchPred.targetWrong_0::DirectUncond            0      0.00%    100.00% # Number of branches where the target was incorrect or not available at prediction time. (Count)
system.cpu.branchPred.targetWrong_0::IndirectCond            0      0.00%    100.00% # Number of branches where the target was incorrect or not available at prediction time. (Count)
system.cpu.branchPred.targetWrong_0::IndirectUncond            0      0.00%    100.00% # Number of branches where the target was incorrect or not available at prediction time. (Count)
system.cpu.branchPred.targetWrong_0::total          754                       # Number of branches where the target was incorrect or not available at prediction time. (Count)
system.cpu.branchPred.condPredicted            182143                       # Number of conditional branches predicted (Count)
system.cpu.branchPred.condPredictedTaken       124969                       # Number of conditional branches predicted as taken (Count)
system.cpu.branchPred.condIncorrect               754                       # Number of conditional branches incorrect (Count)
system.cpu.branchPred.predTakenBTBMiss             48                       # Number of branches predicted taken but missed in BTB (Count)
system.cpu.branchPred.NotTakenMispredicted          524                       # Number branches predicted 'not taken' but turned out to be taken (Count)
system.cpu.branchPred.TakenMispredicted           230                       # Number branches predicted taken but are actually not taken (Count)
system.cpu.branchPred.BTBLookups               329688                       # Number of BTB lookups (Count)
system.cpu.branchPred.BTBUpdates                  518                       # Number of BTB updates (Count)
system.cpu.branchPred.BTBHits                  237676                       # Number of BTB hits (Count)
system.cpu.branchPred.BTBHitRatio            0.720912                       # BTB Hit Ratio (Ratio)
system.cpu.branchPred.BTBMispredicted              60                       # Number BTB mispredictions. No target found or target wrong (Count)
system.cpu.branchPred.indirectLookups              57                       # Number of indirect predictor lookups. (Count)
system.cpu.branchPred.indirectHits                  1                       # Number of indirect target hits. (Count)
system.cpu.branchPred.indirectMisses               56                       # Number of indirect misses. (Count)
system.cpu.branchPred.indirectMispredicted            0                       # Number of mispredicted indirect branches. (Count)
system.cpu.branchPred.btb.lookups::NoBranch            0      0.00%      0.00% # Number of BTB lookups (Count)
system.cpu.branchPred.btb.lookups::Return        50107     15.20%     15.20% # Number of BTB lookups (Count)
system.cpu.branchPred.btb.lookups::CallDirect        49002     14.86%     30.06% # Number of BTB lookups (Count)
system.cpu.branchPred.btb.lookups::CallIndirect           55      0.02%     30.08% # Number of BTB lookups (Count)
system.cpu.branchPred.btb.lookups::DirectCond       182143     55.25%     85.33% # Number of BTB lookups (Count)
system.cpu.branchPred.btb.lookups::DirectUncond        48379     14.67%    100.00% # Number of BTB lookups (Count)
system.cpu.branchPred.btb.lookups::IndirectCond            0      0.00%    100.00% # Number of BTB lookups (Count)
system.cpu.branchPred.btb.lookups::IndirectUncond            2      0.00%    100.00% # Number of BTB lookups (Count)
system.cpu.branchPred.btb.lookups::total       329688                       # Number of BTB lookups (Count)
system.cpu.branchPred.btb.misses::NoBranch            0      0.00%      0.00% # Number of BTB misses (Count)
system.cpu.branchPred.btb.misses::Return        50107     54.46%     54.46% # Number of BTB misses (Count)
system.cpu.branchPred.btb.misses::CallDirect           28      0.03%     54.49% # Number of BTB misses (Count)
system.cpu.branchPred.btb.misses::CallIndirect            6      0.01%     54.49% # Number of BTB misses (Count)
system.cpu.branchPred.btb.misses::DirectCond        41833     45.46%     99.96% # Number of BTB misses (Count)
system.cpu.branchPred.btb.misses::DirectUncond           36      0.04%    100.00% # Number of BTB misses (Count)
system.cpu.branchPred.btb.misses::IndirectCond            0      0.00%    100.00% # Number of BTB misses (Count)
system.cpu.branchPred.btb.misses::IndirectUncond            2      0.00%    100.00% # Number of BTB misses (Count)
system.cpu.branchPred.btb.misses::total         92012                       # Number of BTB misses (Count)
system.cpu.branchPred.btb.updates::NoBranch            0      0.00%      0.00% # Number of BTB updates (Count)
system.cpu.branchPred.btb.updates::Return            0      0.00%      0.00% # Number of BTB updates (Count)
system.cpu.branchPred.btb.updates::CallDirect           18      3.47%      3.47% # Number of BTB updates (Count)
system.cpu.branchPred.btb.updates::CallIndirect            0      0.00%      3.47% # Number of BTB updates (Count)
system.cpu.branchPred.btb.updates::DirectCond          484     93.44%     96.91% # Number of BTB updates (Count)
system.cpu.branchPred.btb.updates::DirectUncond           16      3.09%    100.00% # Number of BTB updates (Count)
system.cpu.branchPred.btb.updates::IndirectCond            0      0.00%    100.00% # Number of BTB updates (Count)
system.cpu.branchPred.btb.updates::IndirectUncond            0      0.00%    100.00% # Number of BTB updates (Count)
system.cpu.branchPred.btb.updates::total          518                       # Number of BTB updates (Count)
system.cpu.branchPred.btb.mispredict::NoBranch            0      0.00%      0.00% # Number of BTB mispredictions. No target found or target wrong. (Count)
system.cpu.branchPred.btb.mispredict::Return            0      0.00%      0.00% # Number of BTB mispredictions. No target found or target wrong. (Count)
system.cpu.branchPred.btb.mispredict::CallDirect           18      3.47%      3.47% # Number of BTB mispredictions. No target found or target wrong. (Count)
system.cpu.branchPred.btb.mispredict::CallIndirect            0      0.00%      3.47% # Number of BTB mispredictions. No target found or target wrong. (Count)
system.cpu.branchPred.btb.mispredict::DirectCond          484     93.44%     96.91% # Number of BTB mispredictions. No target found or target wrong. (Count)
system.cpu.branchPred.btb.mispredict::DirectUncond           16      3.09%    100.00% # Number of BTB mispredictions. No target found or target wrong. (Count)
system.cpu.branchPred.btb.mispredict::IndirectCond            0      0.00%    100.00% # Number of BTB mispredictions. No target found or target wrong. (Count)
system.cpu.branchPred.btb.mispredict::IndirectUncond            0      0.00%    100.00% # Number of BTB mispredictions. No target found or target wrong. (Count)
system.cpu.branchPred.btb.mispredict::total          518                       # Number of BTB mispredictions. No target found or target wrong. (Count)
system.cpu.branchPred.btb.power_state.pwrStateResidencyTicks::UNDEFINED    914547000                       # Cumulative time (in ticks) in various power states (Tick)
system.cpu.branchPred.indirectBranchPred.lookups           57                       # Number of lookups (Count)
system.cpu.branchPred.indirectBranchPred.hits            1                       # Number of hits of a tag (Count)
system.cpu.branchPred.indirectBranchPred.misses           56                       # Number of misses (Count)
system.cpu.branchPred.indirectBranchPred.targetRecords            5                       # Number of targets that where recorded/installed in the cache (Count)
system.cpu.branchPred.indirectBranchPred.indirectRecords           62                       # Number of indirect branches/calls recorded in the indirect hist (Count)
system.cpu.branchPred.indirectBranchPred.speculativeOverflows            0                       # Number of times more than the allowed capacity for speculative branches/calls where in flight and destroy the path history (Count)
system.cpu.branchPred.ras.pushes                57570                       # Number of times a PC was pushed onto the RAS (Count)
system.cpu.branchPred.ras.pops                  57568                       # Number of times a PC was poped from the RAS (Count)
system.cpu.branchPred.ras.squashes              15974                       # Number of times the stack operation was squashed due to wrong speculation. (Count)
system.cpu.branchPred.ras.used                  41591                       # Number of times the RAS is the provider (Count)
system.cpu.branchPred.ras.correct               41590                       # Number of times the RAS is the provider and the prediction is correct (Count)
system.cpu.branchPred.ras.incorrect                 1                       # Number of times the RAS is the provider and the prediction is wrong (Count)
system.cpu.commit.commitSquashedInsts          101749                       # The number of squashed insts skipped by commit (Count)
system.cpu.commit.commitNonSpecStalls             633                       # The number of times commit has been forced to stall to communicate backwards (Count)
system.cpu.commit.branchMispredicts               720                       # The number of times a branch was mispredicted (Count)
system.cpu.commit.numCommittedDist::samples       899907                       # Number of insts commited each cycle (Count)
system.cpu.commit.numCommittedDist::mean     1.195289                       # Number of insts commited each cycle (Count)
system.cpu.commit.numCommittedDist::stdev     2.752750                       # Number of insts commited each cycle (Count)
system.cpu.commit.numCommittedDist::underflows            0      0.00%      0.00% # Number of insts commited each cycle (Count)
system.cpu.commit.numCommittedDist::0          737419     81.94%     81.94% # Number of insts commited each cycle (Count)
system.cpu.commit.numCommittedDist::1           11756      1.31%     83.25% # Number of insts commited each cycle (Count)
system.cpu.commit.numCommittedDist::2           10096      1.12%     84.37% # Number of insts commited each cycle (Count)
system.cpu.commit.numCommittedDist::3           10359      1.15%     85.52% # Number of insts commited each cycle (Count)
system.cpu.commit.numCommittedDist::4            4083      0.45%     85.98% # Number of insts commited each cycle (Count)
system.cpu.commit.numCommittedDist::5            2677      0.30%     86.27% # Number of insts commited each cycle (Count)
system.cpu.commit.numCommittedDist::6             296      0.03%     86.31% # Number of insts commited each cycle (Count)
system.cpu.commit.numCommittedDist::7            4637      0.52%     86.82% # Number of insts commited each cycle (Count)
system.cpu.commit.numCommittedDist::8          118584     13.18%    100.00% # Number of insts commited each cycle (Count)
system.cpu.commit.numCommittedDist::overflows            0      0.00%    100.00% # Number of insts commited each cycle (Count)
system.cpu.commit.numCommittedDist::min_value            0                       # Number of insts commited each cycle (Count)
system.cpu.commit.numCommittedDist::max_value            8                       # Number of insts commited each cycle (Count)
system.cpu.commit.numCommittedDist::total       899907                       # Number of insts commited each cycle (Count)
system.cpu.commit.amos                              0                       # Number of atomic instructions committed (Count)
system.cpu.commit.membars                           0                       # Number of memory barriers committed (Count)
system.cpu.commit.functionCalls                 41593                       # Number of function calls committed. (Count)
system.cpu.commit.committedInstType_0::No_OpClass            0      0.00%      0.00% # Class of committed instruction (Count)
system.cpu.commit.committedInstType_0::IntAlu       785366     73.01%     73.01% # Class of committed instruction (Count)
system.cpu.commit.committedInstType_0::IntMult            0      0.00%     73.01% # Class of committed instruction (Count)
system.cpu.commit.committedInstType_0::IntDiv            0      0.00%     73.01% # Class of committed instruction (Count)
system.cpu.commit.committedInstType_0::ByteMult            0      0.00%     73.01% # Class of committed instruction (Count)
system.cpu.commit.committedInstType_0::ByteDiv            0      0.00%     73.01% # Class of committed instruction (Count)
system.cpu.commit.committedInstType_0::FloatAdd            0      0.00%     73.01% # Class of committed instruction (Count)
system.cpu.commit.committedInstType_0::FloatCmp            0      0.00%     73.01% # Class of committed instruction (Count)
system.cpu.commit.committedInstType_0::FloatCvt            0      0.00%     73.01% # Class of committed instruction (Count)
system.cpu.commit.committedInstType_0::FloatMult            0      0.00%     73.01% # Class of committed instruction (Count)
system.cpu.commit.committedInstType_0::FloatMultAcc            0      0.00%     73.01% # Class of committed instruction (Count)
system.cpu.commit.committedInstType_0::FloatDiv            0      0.00%     73.01% # Class of committed instruction (Count)
system.cpu.commit.committedInstType_0::FloatMisc            0      0.00%     73.01% # Class of committed instruction (Count)
system.cpu.commit.committedInstType_0::FloatSqrt            0      0.00%     73.01% # Class of committed instruction (Count)
system.cpu.commit.committedInstType_0::SimdAdd            0      0.00%     73.01% # Class of committed instruction (Count)
system.cpu.commit.committedInstType_0::SimdAddAcc            0      0.00%     73.01% # Class of committed instruction (Count)
system.cpu.commit.committedInstType_0::SimdAlu            0      0.00%     73.01% # Class of committed instruction (Count)
system.cpu.commit.committedInstType_0::SimdCmp            0      0.00%     73.01% # Class of committed instruction (Count)
system.cpu.commit.committedInstType_0::SimdCvt            0      0.00%     73.01% # Class of committed instruction (Count)
system.cpu.commit.committedInstType_0::SimdMisc            0      0.00%     73.01% # Class of committed instruction (Count)
system.cpu.commit.committedInstType_0::SimdMult            0      0.00%     73.01% # Class of committed instruction (Count)
system.cpu.commit.committedInstType_0::SimdMultAcc            0      0.00%     73.01% # Class of committed instruction (Count)
system.cpu.commit.committedInstType_0::SimdMatMultAcc            0      0.00%     73.01% # Class of committed instruction (Count)
system.cpu.commit.committedInstType_0::SimdShift            0      0.00%     73.01% # Class of committed instruction (Count)
system.cpu.commit.committedInstType_0::SimdShiftAcc            0      0.00%     73.01% # Class of committed instruction (Count)
system.cpu.commit.committedInstType_0::SimdDiv            0      0.00%     73.01% # Class of committed instruction (Count)
system.cpu.commit.committedInstType_0::SimdSqrt            0      0.00%     73.01% # Class of committed instruction (Count)
system.cpu.commit.committedInstType_0::SimdFloatAdd            0      0.00%     73.01% # Class of committed instruction (Count)
system.cpu.commit.committedInstType_0::SimdFloatAlu            0      0.00%     73.01% # Class of committed instruction (Count)
system.cpu.commit.committedInstType_0::SimdFloatCmp            0      0.00%     73.01% # Class of committed instruction (Count)
system.cpu.commit.committedInstType_0::SimdFloatCvt            0      0.00%     73.01% # Class of committed instruction (Count)
system.cpu.commit.committedInstType_0::SimdFloatDiv            0      0.00%     73.01% # Class of committed instruction (Count)
system.cpu.commit.committedInstType_0::SimdFloatMisc            0      0.00%     73.01% # Class of committed instruction (Count)
system.cpu.commit.committedInstType_0::SimdFloatMult            0      0.00%     73.01% # Class of committed instruction (Count)
system.cpu.commit.committedInstType_0::SimdFloatMultAcc            0      0.00%     73.01% # Class of committed instruction (Count)
system.cpu.commit.committedInstType_0::SimdFloatMatMultAcc            0      0.00%     73.01% # Class of committed instruction (Count)
system.cpu.commit.committedInstType_0::SimdFloatSqrt            0      0.00%     73.01% # Class of committed instruction (Count)
system.cpu.commit.committedInstType_0::SimdReduceAdd            0      0.00%     73.01% # Class of committed instruction (Count)
system.cpu.commit.committedInstType_0::SimdReduceAlu            0      0.00%     73.01% # Class of committed instruction (Count)
system.cpu.commit.committedInstType_0::SimdReduceCmp            0      0.00%     73.01% # Class of committed instruction (Count)
system.cpu.commit.committedInstType_0::SimdFloatReduceAdd            0      0.00%     73.01% # Class of committed instruction (Count)
system.cpu.commit.committedInstType_0::SimdFloatReduceCmp            0      0.00%     73.01% # Class of committed instruction (Count)
system.cpu.commit.committedInstType_0::SimdAes            0      0.00%     73.01% # Class of committed instruction (Count)
system.cpu.commit.committedInstType_0::SimdAesMix            0      0.00%     73.01% # Class of committed instruction (Count)
system.cpu.commit.committedInstType_0::SimdSha1Hash            0      0.00%     73.01% # Class of committed instruction (Count)
system.cpu.commit.committedInstType_0::SimdSha1Hash2            0      0.00%     73.01% # Class of committed instruction (Count)
system.cpu.commit.committedInstType_0::SimdSha256Hash            0      0.00%     73.01% # Class of committed instruction (Count)
system.cpu.commit.committedInstType_0::SimdSha256Hash2            0      0.00%     73.01% # Class of committed instruction (Count)
system.cpu.commit.committedInstType_0::SimdShaSigma2            0      0.00%     73.01% # Class of committed instruction (Count)
system.cpu.commit.committedInstType_0::SimdShaSigma3            0      0.00%     73.01% # Class of committed instruction (Count)
system.cpu.commit.committedInstType_0::SimdPredAlu            0      0.00%     73.01% # Class of committed instruction (Count)
system.cpu.commit.committedInstType_0::Matrix            0      0.00%     73.01% # Class of committed instruction (Count)
system.cpu.commit.committedInstType_0::MatrixMov            0      0.00%     73.01% # Class of committed instruction (Count)
system.cpu.commit.committedInstType_0::MatrixOP            0      0.00%     73.01% # Class of committed instruction (Count)
system.cpu.commit.committedInstType_0::MemRead       158597     14.74%     87.76% # Class of committed instruction (Count)
system.cpu.commit.committedInstType_0::MemWrite       131686     12.24%    100.00% # Class of committed instruction (Count)
system.cpu.commit.committedInstType_0::FloatMemRead            0      0.00%    100.00% # Class of committed instruction (Count)
system.cpu.commit.committedInstType_0::FloatMemWrite            0      0.00%    100.00% # Class of committed instruction (Count)
system.cpu.commit.committedInstType_0::IprAccess            0      0.00%    100.00% # Class of committed instruction (Count)
system.cpu.commit.committedInstType_0::InstPrefetch            0      0.00%    100.00% # Class of committed instruction (Count)
system.cpu.commit.committedInstType_0::VectorUnitStrideLoad            0      0.00%    100.00% # Class of committed instruction (Count)
system.cpu.commit.committedInstType_0::VectorUnitStrideStore            0      0.00%    100.00% # Class of committed instruction (Count)
system.cpu.commit.committedInstType_0::VectorUnitStrideMaskLoad            0      0.00%    100.00% # Class of committed instruction (Count)
system.cpu.commit.committedInstType_0::VectorUnitStrideMaskStore            0      0.00%    100.00% # Class of committed instruction (Count)
system.cpu.commit.committedInstType_0::VectorStridedLoad            0      0.00%    100.00% # Class of committed instruction (Count)
system.cpu.commit.committedInstType_0::VectorStridedStore            0      0.00%    100.00% # Class of committed instruction (Count)
system.cpu.commit.committedInstType_0::VectorIndexedLoad            0      0.00%    100.00% # Class of committed instruction (Count)
system.cpu.commit.committedInstType_0::VectorIndexedStore            0      0.00%    100.00% # Class of committed instruction (Count)
system.cpu.commit.committedInstType_0::VectorUnitStrideFaultOnlyFirstLoad            0      0.00%    100.00% # Class of committed instruction (Count)
system.cpu.commit.committedInstType_0::VectorWholeRegisterLoad            0      0.00%    100.00% # Class of committed instruction (Count)
system.cpu.commit.committedInstType_0::VectorWholeRegisterStore            0      0.00%    100.00% # Class of committed instruction (Count)
system.cpu.commit.committedInstType_0::VectorIntegerArith            0      0.00%    100.00% # Class of committed instruction (Count)
system.cpu.commit.committedInstType_0::VectorFloatArith            0      0.00%    100.00% # Class of committed instruction (Count)
system.cpu.commit.committedInstType_0::VectorFloatConvert            0      0.00%    100.00% # Class of committed instruction (Count)
system.cpu.commit.committedInstType_0::VectorIntegerReduce            0      0.00%    100.00% # Class of committed instruction (Count)
system.cpu.commit.committedInstType_0::VectorFloatReduce            0      0.00%    100.00% # Class of committed instruction (Count)
system.cpu.commit.committedInstType_0::VectorMisc            0      0.00%    100.00% # Class of committed instruction (Count)
system.cpu.commit.committedInstType_0::VectorIntegerExtension            0      0.00%    100.00% # Class of committed instruction (Count)
system.cpu.commit.committedInstType_0::VectorConfig            0      0.00%    100.00% # Class of committed instruction (Count)
system.cpu.commit.committedInstType_0::total      1075649                       # Class of committed instruction (Count)
system.cpu.commit.commitEligibleSamples        118584                       # number cycles where commit BW limit reached (Cycle)
system.cpu.commitStats0.numInsts              1075649                       # Number of instructions committed (thread level) (Count)
system.cpu.commitStats0.numOps                1075649                       # Number of ops (including micro ops) committed (thread level) (Count)
system.cpu.commitStats0.numInstsNotNOP        1075649                       # Number of instructions committed excluding NOPs or prefetches (Count)
system.cpu.commitStats0.numOpsNotNOP          1075649                       # Number of Ops (including micro ops) Simulated (Count)
system.cpu.commitStats0.cpi                  0.850229                       # CPI: cycles per instruction (thread level) ((Cycle/Count))
system.cpu.commitStats0.ipc                  1.176154                       # IPC: instructions per cycle (thread level) ((Count/Cycle))
system.cpu.commitStats0.numMemRefs             290283                       # Number of memory references committed (Count)
system.cpu.commitStats0.numFpInsts                  0                       # Number of float instructions (Count)
system.cpu.commitStats0.numIntInsts           1034061                       # Number of integer instructions (Count)
system.cpu.commitStats0.numLoadInsts           158597                       # Number of load instructions (Count)
system.cpu.commitStats0.numStoreInsts          131686                       # Number of store instructions (Count)
system.cpu.commitStats0.numVecInsts                 0                       # Number of vector instructions (Count)
system.cpu.commitStats0.committedInstType::No_OpClass            0      0.00%      0.00% # Class of committed instruction. (Count)
system.cpu.commitStats0.committedInstType::IntAlu       785366     73.01%     73.01% # Class of committed instruction. (Count)
system.cpu.commitStats0.committedInstType::IntMult            0      0.00%     73.01% # Class of committed instruction. (Count)
system.cpu.commitStats0.committedInstType::IntDiv            0      0.00%     73.01% # Class of committed instruction. (Count)
system.cpu.commitStats0.committedInstType::ByteMult            0      0.00%     73.01% # Class of committed instruction. (Count)
system.cpu.commitStats0.committedInstType::ByteDiv            0      0.00%     73.01% # Class of committed instruction. (Count)
system.cpu.commitStats0.committedInstType::FloatAdd            0      0.00%     73.01% # Class of committed instruction. (Count)
system.cpu.commitStats0.committedInstType::FloatCmp            0      0.00%     73.01% # Class of committed instruction. (Count)
system.cpu.commitStats0.committedInstType::FloatCvt            0      0.00%     73.01% # Class of committed instruction. (Count)
system.cpu.commitStats0.committedInstType::FloatMult            0      0.00%     73.01% # Class of committed instruction. (Count)
system.cpu.commitStats0.committedInstType::FloatMultAcc            0      0.00%     73.01% # Class of committed instruction. (Count)
system.cpu.commitStats0.committedInstType::FloatDiv            0      0.00%     73.01% # Class of committed instruction. (Count)
system.cpu.commitStats0.committedInstType::FloatMisc            0      0.00%     73.01% # Class of committed instruction. (Count)
system.cpu.commitStats0.committedInstType::FloatSqrt            0      0.00%     73.01% # Class of committed instruction. (Count)
system.cpu.commitStats0.committedInstType::SimdAdd            0      0.00%     73.01% # Class of committed instruction. (Count)
system.cpu.commitStats0.committedInstType::SimdAddAcc            0      0.00%     73.01% # Class of committed instruction. (Count)
system.cpu.commitStats0.committedInstType::SimdAlu            0      0.00%     73.01% # Class of committed instruction. (Count)
system.cpu.commitStats0.committedInstType::SimdCmp            0      0.00%     73.01% # Class of committed instruction. (Count)
system.cpu.commitStats0.committedInstType::SimdCvt            0      0.00%     73.01% # Class of committed instruction. (Count)
system.cpu.commitStats0.committedInstType::SimdMisc            0      0.00%     73.01% # Class of committed instruction. (Count)
system.cpu.commitStats0.committedInstType::SimdMult            0      0.00%     73.01% # Class of committed instruction. (Count)
system.cpu.commitStats0.committedInstType::SimdMultAcc            0      0.00%     73.01% # Class of committed instruction. (Count)
system.cpu.commitStats0.committedInstType::SimdMatMultAcc            0      0.00%     73.01% # Class of committed instruction. (Count)
system.cpu.commitStats0.committedInstType::SimdShift            0      0.00%     73.01% # Class of committed instruction. (Count)
system.cpu.commitStats0.committedInstType::SimdShiftAcc            0      0.00%     73.01% # Class of committed instruction. (Count)
system.cpu.commitStats0.committedInstType::SimdDiv            0      0.00%     73.01% # Class of committed instruction. (Count)
system.cpu.commitStats0.committedInstType::SimdSqrt            0      0.00%     73.01% # Class of committed instruction. (Count)
system.cpu.commitStats0.committedInstType::SimdFloatAdd            0      0.00%     73.01% # Class of committed instruction. (Count)
system.cpu.commitStats0.committedInstType::SimdFloatAlu            0      0.00%     73.01% # Class of committed instruction. (Count)
system.cpu.commitStats0.committedInstType::SimdFloatCmp            0      0.00%     73.01% # Class of committed instruction. (Count)
system.cpu.commitStats0.committedInstType::SimdFloatCvt            0      0.00%     73.01% # Class of committed instruction. (Count)
system.cpu.commitStats0.committedInstType::SimdFloatDiv            0      0.00%     73.01% # Class of committed instruction. (Count)
system.cpu.commitStats0.committedInstType::SimdFloatMisc            0      0.00%     73.01% # Class of committed instruction. (Count)
system.cpu.commitStats0.committedInstType::SimdFloatMult            0      0.00%     73.01% # Class of committed instruction. (Count)
system.cpu.commitStats0.committedInstType::SimdFloatMultAcc            0      0.00%     73.01% # Class of committed instruction. (Count)
system.cpu.commitStats0.committedInstType::SimdFloatMatMultAcc            0      0.00%     73.01% # Class of committed instruction. (Count)
system.cpu.commitStats0.committedInstType::SimdFloatSqrt            0      0.00%     73.01% # Class of committed instruction. (Count)
system.cpu.commitStats0.committedInstType::SimdReduceAdd            0      0.00%     73.01% # Class of committed instruction. (Count)
system.cpu.commitStats0.committedInstType::SimdReduceAlu            0      0.00%     73.01% # Class of committed instruction. (Count)
system.cpu.commitStats0.committedInstType::SimdReduceCmp            0      0.00%     73.01% # Class of committed instruction. (Count)
system.cpu.commitStats0.committedInstType::SimdFloatReduceAdd            0      0.00%     73.01% # Class of committed instruction. (Count)
system.cpu.commitStats0.committedInstType::SimdFloatReduceCmp            0      0.00%     73.01% # Class of committed instruction. (Count)
system.cpu.commitStats0.committedInstType::SimdAes            0      0.00%     73.01% # Class of committed instruction. (Count)
system.cpu.commitStats0.committedInstType::SimdAesMix            0      0.00%     73.01% # Class of committed instruction. (Count)
system.cpu.commitStats0.committedInstType::SimdSha1Hash            0      0.00%     73.01% # Class of committed instruction. (Count)
system.cpu.commitStats0.committedInstType::SimdSha1Hash2            0      0.00%     73.01% # Class of committed instruction. (Count)
system.cpu.commitStats0.committedInstType::SimdSha256Hash            0      0.00%     73.01% # Class of committed instruction. (Count)
system.cpu.commitStats0.committedInstType::SimdSha256Hash2            0      0.00%     73.01% # Class of committed instruction. (Count)
system.cpu.commitStats0.committedInstType::SimdShaSigma2            0      0.00%     73.01% # Class of committed instruction. (Count)
system.cpu.commitStats0.committedInstType::SimdShaSigma3            0      0.00%     73.01% # Class of committed instruction. (Count)
system.cpu.commitStats0.committedInstType::SimdPredAlu            0      0.00%     73.01% # Class of committed instruction. (Count)
system.cpu.commitStats0.committedInstType::Matrix            0      0.00%     73.01% # Class of committed instruction. (Count)
system.cpu.commitStats0.committedInstType::MatrixMov            0      0.00%     73.01% # Class of committed instruction. (Count)
system.cpu.commitStats0.committedInstType::MatrixOP            0      0.00%     73.01% # Class of committed instruction. (Count)
system.cpu.commitStats0.committedInstType::MemRead       158597     14.74%     87.76% # Class of committed instruction. (Count)
system.cpu.commitStats0.committedInstType::MemWrite       131686     12.24%    100.00% # Class of committed instruction. (Count)
system.cpu.commitStats0.committedInstType::FloatMemRead            0      0.00%    100.00% # Class of committed instruction. (Count)
system.cpu.commitStats0.committedInstType::FloatMemWrite            0      0.00%    100.00% # Class of committed instruction. (Count)
system.cpu.commitStats0.committedInstType::IprAccess            0      0.00%    100.00% # Class of committed instruction. (Count)
system.cpu.commitStats0.committedInstType::InstPrefetch            0      0.00%    100.00% # Class of committed instruction. (Count)
system.cpu.commitStats0.committedInstType::VectorUnitStrideLoad            0      0.00%    100.00% # Class of committed instruction. (Count)
system.cpu.commitStats0.committedInstType::VectorUnitStrideStore            0      0.00%    100.00% # Class of committed instruction. (Count)
system.cpu.commitStats0.committedInstType::VectorUnitStrideMaskLoad            0      0.00%    100.00% # Class of committed instruction. (Count)
system.cpu.commitStats0.committedInstType::VectorUnitStrideMaskStore            0      0.00%    100.00% # Class of committed instruction. (Count)
system.cpu.commitStats0.committedInstType::VectorStridedLoad            0      0.00%    100.00% # Class of committed instruction. (Count)
system.cpu.commitStats0.committedInstType::VectorStridedStore            0      0.00%    100.00% # Class of committed instruction. (Count)
system.cpu.commitStats0.committedInstType::VectorIndexedLoad            0      0.00%    100.00% # Class of committed instruction. (Count)
system.cpu.commitStats0.committedInstType::VectorIndexedStore            0      0.00%    100.00% # Class of committed instruction. (Count)
system.cpu.commitStats0.committedInstType::VectorUnitStrideFaultOnlyFirstLoad            0      0.00%    100.00% # Class of committed instruction. (Count)
system.cpu.commitStats0.committedInstType::VectorWholeRegisterLoad            0      0.00%    100.00% # Class of committed instruction. (Count)
system.cpu.commitStats0.committedInstType::VectorWholeRegisterStore            0      0.00%    100.00% # Class of committed instruction. (Count)
system.cpu.commitStats0.committedInstType::VectorIntegerArith            0      0.00%    100.00% # Class of committed instruction. (Count)
system.cpu.commitStats0.committedInstType::VectorFloatArith            0      0.00%    100.00% # Class of committed instruction. (Count)
system.cpu.commitStats0.committedInstType::VectorFloatConvert            0      0.00%    100.00% # Class of committed instruction. (Count)
system.cpu.commitStats0.committedInstType::VectorIntegerReduce            0      0.00%    100.00% # Class of committed instruction. (Count)
system.cpu.commitStats0.committedInstType::VectorFloatReduce            0      0.00%    100.00% # Class of committed instruction. (Count)
system.cpu.commitStats0.committedInstType::VectorMisc            0      0.00%    100.00% # Class of committed instruction. (Count)
system.cpu.commitStats0.committedInstType::VectorIntegerExtension            0      0.00%    100.00% # Class of committed instruction. (Count)
system.cpu.commitStats0.committedInstType::VectorConfig            0      0.00%    100.00% # Class of committed instruction. (Count)
system.cpu.commitStats0.committedInstType::total      1075649                       # Class of committed instruction. (Count)
system.cpu.commitStats0.committedControl::IsControl       280401                       # Class of control type instructions committed (Count)
system.cpu.commitStats0.committedControl::IsDirectControl       238806                       # Class of control type instructions committed (Count)
system.cpu.commitStats0.committedControl::IsIndirectControl        41595                       # Class of control type instructions committed (Count)
system.cpu.commitStats0.committedControl::IsCondControl       155627                       # Class of control type instructions committed (Count)
system.cpu.commitStats0.committedControl::IsUncondControl       124774                       # Class of control type instructions committed (Count)
system.cpu.commitStats0.committedControl::IsCall        41593                       # Class of control type instructions committed (Count)
system.cpu.commitStats0.committedControl::IsReturn        41591                       # Class of control type instructions committed (Count)
system.cpu.dcache.demandHits::cpu.data         147372                       # number of demand (read+write) hits (Count)
system.cpu.dcache.demandHits::total            147372                       # number of demand (read+write) hits (Count)
system.cpu.dcache.overallHits::cpu.data        147372                       # number of overall hits (Count)
system.cpu.dcache.overallHits::total           147372                       # number of overall hits (Count)
system.cpu.dcache.demandMisses::cpu.data        70732                       # number of demand (read+write) misses (Count)
system.cpu.dcache.demandMisses::total           70732                       # number of demand (read+write) misses (Count)
system.cpu.dcache.overallMisses::cpu.data        70732                       # number of overall misses (Count)
system.cpu.dcache.overallMisses::total          70732                       # number of overall misses (Count)
system.cpu.dcache.demandMissLatency::cpu.data   4154008781                       # number of demand (read+write) miss ticks (Tick)
system.cpu.dcache.demandMissLatency::total   4154008781                       # number of demand (read+write) miss ticks (Tick)
system.cpu.dcache.overallMissLatency::cpu.data   4154008781                       # number of overall miss ticks (Tick)
system.cpu.dcache.overallMissLatency::total   4154008781                       # number of overall miss ticks (Tick)
[...]
system.mem_ctrl.dram.numWrites::writebacks        36405                       # Number of write requests responded to by this memory (Count)
system.mem_ctrl.dram.numWrites::total           36405                       # Number of write requests responded to by this memory (Count)
system.mem_ctrl.dram.bwRead::cpu.inst         3079120                       # Total read bandwidth from this memory ((Byte/Second))
system.mem_ctrl.dram.bwRead::cpu.data      2811096641                       # Total read bandwidth from this memory ((Byte/Second))
system.mem_ctrl.dram.bwRead::total         2814175761                       # Total read bandwidth from this memory ((Byte/Second))
system.mem_ctrl.dram.bwInstRead::cpu.inst      3079120                       # Instruction read bandwidth from this memory ((Byte/Second))
system.mem_ctrl.dram.bwInstRead::total        3079120                       # Instruction read bandwidth from this memory ((Byte/Second))
system.mem_ctrl.dram.bwWrite::writebacks   2547621937                       # Write bandwidth from this memory ((Byte/Second))
system.mem_ctrl.dram.bwWrite::total        2547621937                       # Write bandwidth from this memory ((Byte/Second))
system.mem_ctrl.dram.bwTotal::writebacks   2547621937                       # Total bandwidth to/from this memory ((Byte/Second))
system.mem_ctrl.dram.bwTotal::cpu.inst        3079120                       # Total bandwidth to/from this memory ((Byte/Second))
system.mem_ctrl.dram.bwTotal::cpu.data     2811096641                       # Total bandwidth to/from this memory ((Byte/Second))
system.mem_ctrl.dram.bwTotal::total        5361797699                       # Total bandwidth to/from this memory ((Byte/Second))
system.mem_ctrl.dram.readBursts                 32119                       # Number of DRAM read bursts (Count)
system.mem_ctrl.dram.writeBursts                33516                       # Number of DRAM write bursts (Count)
system.mem_ctrl.dram.perBankRdBursts::0          1747                       # Per bank write bursts (Count)
system.mem_ctrl.dram.perBankRdBursts::1          1706                       # Per bank write bursts (Count)
system.mem_ctrl.dram.perBankRdBursts::2          1666                       # Per bank write bursts (Count)
system.mem_ctrl.dram.perBankRdBursts::3          1624                       # Per bank write bursts (Count)
system.mem_ctrl.dram.perBankRdBursts::4          1621                       # Per bank write bursts (Count)
system.mem_ctrl.dram.perBankRdBursts::5          5174                       # Per bank write bursts (Count)
system.mem_ctrl.dram.perBankRdBursts::6          2349                       # Per bank write bursts (Count)
system.mem_ctrl.dram.perBankRdBursts::7          2579                       # Per bank write bursts (Count)
system.mem_ctrl.dram.perBankRdBursts::8          1706                       # Per bank write bursts (Count)
system.mem_ctrl.dram.perBankRdBursts::9          1707                       # Per bank write bursts (Count)
system.mem_ctrl.dram.perBankRdBursts::10         1707                       # Per bank write bursts (Count)
system.mem_ctrl.dram.perBankRdBursts::11         1706                       # Per bank write bursts (Count)
system.mem_ctrl.dram.perBankRdBursts::12         1707                       # Per bank write bursts (Count)
system.mem_ctrl.dram.perBankRdBursts::13         1707                       # Per bank write bursts (Count)
system.mem_ctrl.dram.perBankRdBursts::14         1706                       # Per bank write bursts (Count)
system.mem_ctrl.dram.perBankRdBursts::15         1707                       # Per bank write bursts (Count)
system.mem_ctrl.dram.perBankWrBursts::0          1707                       # Per bank write bursts (Count)
system.mem_ctrl.dram.perBankWrBursts::1          1704                       # Per bank write bursts (Count)
system.mem_ctrl.dram.perBankWrBursts::2          1630                       # Per bank write bursts (Count)
system.mem_ctrl.dram.perBankWrBursts::3          1622                       # Per bank write bursts (Count)
system.mem_ctrl.dram.perBankWrBursts::4          1621                       # Per bank write bursts (Count)
system.mem_ctrl.dram.perBankWrBursts::5          4416                       # Per bank write bursts (Count)
system.mem_ctrl.dram.perBankWrBursts::6          2348                       # Per bank write bursts (Count)
system.mem_ctrl.dram.perBankWrBursts::7          4815                       # Per bank write bursts (Count)
system.mem_ctrl.dram.perBankWrBursts::8          1706                       # Per bank write bursts (Count)
system.mem_ctrl.dram.perBankWrBursts::9          1707                       # Per bank write bursts (Count)
system.mem_ctrl.dram.perBankWrBursts::10         1707                       # Per bank write bursts (Count)
system.mem_ctrl.dram.perBankWrBursts::11         1706                       # Per bank write bursts (Count)
system.mem_ctrl.dram.perBankWrBursts::12         1707                       # Per bank write bursts (Count)
system.mem_ctrl.dram.perBankWrBursts::13         1707                       # Per bank write bursts (Count)
system.mem_ctrl.dram.perBankWrBursts::14         1706                       # Per bank write bursts (Count)
system.mem_ctrl.dram.perBankWrBursts::15         1707                       # Per bank write bursts (Count)
system.mem_ctrl.dram.totQLat                946684000                       # Total ticks spent queuing (Tick)
system.mem_ctrl.dram.totBusLat              160595000                       # Total ticks spent in databus transfers (Tick)
system.mem_ctrl.dram.totMemAccLat          1548915250                       # Total ticks spent from burst creation until serviced by the DRAM (Tick)
system.mem_ctrl.dram.avgQLat                 29474.27                       # Average queueing delay per DRAM burst ((Tick/Count))
system.mem_ctrl.dram.avgBusLat                5000.00                       # Average bus latency per DRAM burst ((Tick/Count))
system.mem_ctrl.dram.avgMemAccLat            48224.27                       # Average memory access latency per DRAM burst ((Tick/Count))
system.mem_ctrl.dram.readRowHits                29074                       # Number of row buffer hits during reads (Count)
system.mem_ctrl.dram.writeRowHits               31471                       # Number of row buffer hits during writes (Count)
system.mem_ctrl.dram.readRowHitRate             90.52                       # Row buffer hit rate for reads (Ratio)
system.mem_ctrl.dram.writeRowHitRate            93.90                       # Row buffer hit rate for writes (Ratio)
system.mem_ctrl.dram.bytesPerActivate::samples         5085                       # Bytes accessed per row activation (Byte)
system.mem_ctrl.dram.bytesPerActivate::mean   825.555949                       # Bytes accessed per row activation (Byte)
system.mem_ctrl.dram.bytesPerActivate::gmean   679.174059                       # Bytes accessed per row activation (Byte)
system.mem_ctrl.dram.bytesPerActivate::stdev   332.619703                       # Bytes accessed per row activation (Byte)
system.mem_ctrl.dram.bytesPerActivate::0-127          317      6.23%      6.23% # Bytes accessed per row activation (Byte)
system.mem_ctrl.dram.bytesPerActivate::128-255          296      5.82%     12.06% # Bytes accessed per row activation (Byte)
system.mem_ctrl.dram.bytesPerActivate::256-383          202      3.97%     16.03% # Bytes accessed per row activation (Byte)
system.mem_ctrl.dram.bytesPerActivate::384-511          176      3.46%     19.49% # Bytes accessed per row activation (Byte)
system.mem_ctrl.dram.bytesPerActivate::512-639          136      2.67%     22.16% # Bytes accessed per row activation (Byte)
system.mem_ctrl.dram.bytesPerActivate::640-767          251      4.94%     27.10% # Bytes accessed per row activation (Byte)
system.mem_ctrl.dram.bytesPerActivate::768-895          123      2.42%     29.52% # Bytes accessed per row activation (Byte)
system.mem_ctrl.dram.bytesPerActivate::896-1023           62      1.22%     30.74% # Bytes accessed per row activation (Byte)
system.mem_ctrl.dram.bytesPerActivate::1024-1151         3522     69.26%    100.00% # Bytes accessed per row activation (Byte)
system.mem_ctrl.dram.bytesPerActivate::total         5085                       # Bytes accessed per row activation (Byte)
system.mem_ctrl.dram.dramBytesRead            2055616                       # Total bytes read (Byte)
system.mem_ctrl.dram.dramBytesWritten         2145024                       # Total bytes written (Byte)
system.mem_ctrl.dram.avgRdBW              2247.687653                       # Average DRAM read bandwidth in MiBytes/s ((Byte/Second))
system.mem_ctrl.dram.avgWrBW              2345.449714                       # Average DRAM write bandwidth in MiBytes/s ((Byte/Second))
system.mem_ctrl.dram.peakBW                  12800.00                       # Theoretical peak bandwidth in MiByte/s ((Byte/Second))
system.mem_ctrl.dram.busUtil                    35.88                       # Data bus utilization in percentage (Ratio)
system.mem_ctrl.dram.busUtilRead                17.56                       # Data bus utilization in percentage for reads (Ratio)
system.mem_ctrl.dram.busUtilWrite               18.32                       # Data bus utilization in percentage for writes (Ratio)
system.mem_ctrl.dram.pageHitRate                92.24                       # Row buffer hit rate, read and write combined (Ratio)
system.mem_ctrl.dram.power_state.pwrStateResidencyTicks::UNDEFINED    914547000                       # Cumulative time (in ticks) in various power states (Tick)
system.mem_ctrl.dram.rank0.actEnergy         23369220                       # Energy for activate commands per rank (pJ) (Joule)
system.mem_ctrl.dram.rank0.preEnergy         12402060                       # Energy for precharge commands per rank (pJ) (Joule)
system.mem_ctrl.dram.rank0.readEnergy       131847240                       # Energy for read commands per rank (pJ) (Joule)
system.mem_ctrl.dram.rank0.writeEnergy      103684860                       # Energy for write commands per rank (pJ) (Joule)
system.mem_ctrl.dram.rank0.refreshEnergy 71912880.000000                       # Energy for refresh commands per rank (pJ) (Joule)
system.mem_ctrl.dram.rank0.actBackEnergy    412805970                       # Energy for active background per rank (pJ) (Joule)
system.mem_ctrl.dram.rank0.preBackEnergy      3560160                       # Energy for precharge background per rank (pJ) (Joule)
system.mem_ctrl.dram.rank0.actPowerDownEnergy            0                       # Energy for active power-down per rank (pJ) (Joule)
system.mem_ctrl.dram.rank0.prePowerDownEnergy            0                       # Energy for precharge power-down per rank (pJ) (Joule)
system.mem_ctrl.dram.rank0.selfRefreshEnergy            0                       # Energy for self refresh per rank (pJ) (Joule)
system.mem_ctrl.dram.rank0.totalEnergy      759582390                       # Total energy per rank (pJ) (Joule)
system.mem_ctrl.dram.rank0.averagePower    830.555882                       # Core power per rank (mW) (Watt)
system.mem_ctrl.dram.rank0.totalIdleTime            0                       # Total Idle time Per DRAM Rank (Tick)
system.mem_ctrl.dram.rank0.pwrStateTime::IDLE      5794500                       # Time in different power states (Tick)
system.mem_ctrl.dram.rank0.pwrStateTime::REF     30420000                       # Time in different power states (Tick)
system.mem_ctrl.dram.rank0.pwrStateTime::SREF            0                       # Time in different power states (Tick)
system.mem_ctrl.dram.rank0.pwrStateTime::PRE_PDN            0                       # Time in different power states (Tick)
system.mem_ctrl.dram.rank0.pwrStateTime::ACT    878332500                       # Time in different power states (Tick)
system.mem_ctrl.dram.rank0.pwrStateTime::ACT_PDN            0                       # Time in different power states (Tick)
system.mem_ctrl.dram.rank1.actEnergy         12973380                       # Energy for activate commands per rank (pJ) (Joule)
system.mem_ctrl.dram.rank1.preEnergy          6895515                       # Energy for precharge commands per rank (pJ) (Joule)
system.mem_ctrl.dram.rank1.readEnergy        97482420                       # Energy for read commands per rank (pJ) (Joule)
system.mem_ctrl.dram.rank1.writeEnergy       71268660                       # Energy for write commands per rank (pJ) (Joule)
system.mem_ctrl.dram.rank1.refreshEnergy 71912880.000000                       # Energy for refresh commands per rank (pJ) (Joule)
system.mem_ctrl.dram.rank1.actBackEnergy    256688670                       # Energy for active background per rank (pJ) (Joule)
system.mem_ctrl.dram.rank1.preBackEnergy    135027360                       # Energy for precharge background per rank (pJ) (Joule)
system.mem_ctrl.dram.rank1.actPowerDownEnergy            0                       # Energy for active power-down per rank (pJ) (Joule)
system.mem_ctrl.dram.rank1.prePowerDownEnergy            0                       # Energy for precharge power-down per rank (pJ) (Joule)
system.mem_ctrl.dram.rank1.selfRefreshEnergy            0                       # Energy for self refresh per rank (pJ) (Joule)
system.mem_ctrl.dram.rank1.totalEnergy      652248885                       # Total energy per rank (pJ) (Joule)
system.mem_ctrl.dram.rank1.averagePower    713.193401                       # Core power per rank (mW) (Watt)
system.mem_ctrl.dram.rank1.totalIdleTime            0                       # Total Idle time Per DRAM Rank (Tick)
system.mem_ctrl.dram.rank1.pwrStateTime::IDLE    344466000                       # Time in different power states (Tick)
system.mem_ctrl.dram.rank1.pwrStateTime::REF     30420000                       # Time in different power states (Tick)
system.mem_ctrl.dram.rank1.pwrStateTime::SREF            0                       # Time in different power states (Tick)
system.mem_ctrl.dram.rank1.pwrStateTime::PRE_PDN            0                       # Time in different power states (Tick)
system.mem_ctrl.dram.rank1.pwrStateTime::ACT    539661000                       # Time in different power states (Tick)
system.mem_ctrl.dram.rank1.pwrStateTime::ACT_PDN            0                       # Time in different power states (Tick)
system.mem_ctrl.power_state.pwrStateResidencyTicks::UNDEFINED    914547000                       # Cumulative time (in ticks) in various power states (Tick)
system.membus.transDist::ReadResp                6826                       # Transaction distribution (Count)
system.membus.transDist::WritebackDirty         36405                       # Transaction distribution (Count)
system.membus.transDist::CleanEvict              3748                       # Transaction distribution (Count)
system.membus.transDist::ReadExReq              33389                       # Transaction distribution (Count)
system.membus.transDist::ReadExResp             33387                       # Transaction distribution (Count)
system.membus.transDist::ReadSharedReq           6826                       # Transaction distribution (Count)
system.membus.transDist::InvalidateReq              1                       # Transaction distribution (Count)
system.membus.pktCount_system.cpu.icache.mem_side_port::system.mem_ctrl.port           88                       # Packet count per connected requestor and responder (Count)
system.membus.pktCount_system.cpu.dcache.mem_side_port::system.mem_ctrl.port       120494                       # Packet count per connected requestor and responder (Count)
system.membus.pktCount::total                  120582                       # Packet count per connected requestor and responder (Count)
system.membus.pktSize_system.cpu.icache.mem_side_port::system.mem_ctrl.port         2816                       # Cumulative packet size per connected requestor and responder (Byte)
system.membus.pktSize_system.cpu.dcache.mem_side_port::system.mem_ctrl.port      4900736                       # Cumulative packet size per connected requestor and responder (Byte)
system.membus.pktSize::total                  4903552                       # Cumulative packet size per connected requestor and responder (Byte)
system.membus.snoops                                0                       # Total snoops (Count)
system.membus.snoopTraffic                          0                       # Total snoop traffic (Byte)
system.membus.snoopFanout::samples              40216                       # Request fanout histogram (Count)
system.membus.snoopFanout::mean                     0                       # Request fanout histogram (Count)
system.membus.snoopFanout::stdev                    0                       # Request fanout histogram (Count)
system.membus.snoopFanout::underflows               0      0.00%      0.00% # Request fanout histogram (Count)
system.membus.snoopFanout::0                    40216    100.00%    100.00% # Request fanout histogram (Count)
system.membus.snoopFanout::1                        0      0.00%    100.00% # Request fanout histogram (Count)
system.membus.snoopFanout::2                        0      0.00%    100.00% # Request fanout histogram (Count)
system.membus.snoopFanout::overflows                0      0.00%    100.00% # Request fanout histogram (Count)
system.membus.snoopFanout::min_value                0                       # Request fanout histogram (Count)
system.membus.snoopFanout::max_value                0                       # Request fanout histogram (Count)
system.membus.snoopFanout::total                40216                       # Request fanout histogram (Count)
system.membus.power_state.pwrStateResidencyTicks::UNDEFINED    914547000                       # Cumulative time (in ticks) in various power states (Tick)
system.membus.reqLayer0.occupancy           225989000                       # Layer occupancy (ticks) (Tick)
system.membus.reqLayer0.utilization               0.2                       # Layer utilization (Ratio)
system.membus.respLayer0.occupancy             232250                       # Layer occupancy (ticks) (Tick)
system.membus.respLayer0.utilization              0.0                       # Layer utilization (Ratio)
system.membus.respLayer1.occupancy          206462500                       # Layer occupancy (ticks) (Tick)
system.membus.respLayer1.utilization              0.2                       # Layer utilization (Ratio)
system.membus.snoop_filter.totRequests          80369                       # Total number of requests made to the snoop filter. (Count)
system.membus.snoop_filter.hitSingleRequests        40153                       # Number of requests hitting in the snoop filter with a single holder of the requested data. (Count)
system.membus.snoop_filter.hitMultiRequests            0                       # Number of requests hitting in the snoop filter with multiple (>1) holders of the requested data. (Count)
system.membus.snoop_filter.totSnoops                0                       # Total number of snoops made to the snoop filter. (Count)
system.membus.snoop_filter.hitSingleSnoops            0                       # Number of snoops hitting in the snoop filter with a single holder of the requested data. (Count)
system.membus.snoop_filter.hitMultiSnoops            0                       # Number of snoops hitting in the snoop filter with multiple (>1) holders of the requested data. (Count)
system.workload.inst.arm                            0                       # number of arm instructions executed (Count)
system.workload.inst.quiesce                        0                       # number of quiesce instructions executed (Count)

---------- End Simulation Statistics   ----------
