
---------- Begin Simulation Statistics ----------
simSeconds                                   0.000479                       # Number of seconds simulated (Second)
simTicks                                    479077000                       # Number of ticks simulated (Tick)
finalTick                                   479077000                       # Number of ticks from beginning of simulation (restored from checkpoints and never reset) (Tick)
simFreq                                  1000000000000                       # The number of ticks per simulated second ((Tick/Second))
hostSeconds                                     13.88                       # Real time elapsed on the host (Second)
hostTickRate                                 34506876                       # The number of ticks simulated per host second (ticks/s) ((Tick/Second))
hostMemory                                    8527684                       # Number of bytes of host memory used (Byte)
simInsts                                       177930                       # Number of instructions simulated (Count)
simOps                                         177930                       # Number of ops (including micro ops) simulated (Count)
hostInstRate                                    12816                       # Simulator instruction rate (inst/s) ((Count/Second))
hostOpRate                                      12816                       # Simulator op (including micro ops) rate (op/s) ((Count/Second))
system.chaos.numFaultsInjected                   4765                       # Total number of faults injected (Count)
system.chaos.numBitFlips                         4765                       # Number of bit flip faults injected (Count)
system.chaos.numStuckAtZero                         0                       # Number of stuck-at-0 faults injected (Count)
system.chaos.numStuckAtOne                          0                       # Number of stuck-at-1 faults injected (Count)
system.chaos.numPermanentFaults                     0                       # Total number of permanent faults injected (Count)
system.clk_domain.clock                          1000                       # Clock period in ticks (Tick)
system.clk_domain.voltage_domain.voltage            1                       # Voltage in Volts (Volt)
system.cpu.numCycles                           479078                       # Number of cpu cycles simulated (Cycle)
system.cpu.cpi                               2.692508                       # CPI: cycles per instruction (core level) ((Cycle/Count))
system.cpu.ipc                               0.371401                       # IPC: instructions per cycle (core level) ((Count/Cycle))
system.cpu.numWorkItemsStarted                      0                       # Number of work items this cpu started (Count)
system.cpu.numWorkItemsCompleted                    0                       # Number of work items this cpu completed (Count)
system.cpu.instsAdded                          184568                       # Number of instructions added to the IQ (excludes non-spec) (Count)
system.cpu.nonSpecInstsAdded                       30                       # Number of non-speculative instructions added to the IQ (Count)
system.cpu.instsIssued                         243601                       # Number of instructions issued (Count)
system.cpu.squashedInstsIssued                    185                       # Number of squashed instructions issued (Count)
system.cpu.squashedInstsExamined                 6667                       # Number of squashed instructions iterated over during squash; mainly for profiling (Count)
system.cpu.squashedOperandsExamined              3199                       # Number of squashed operands that are examined and possibly removed from graph (Count)
system.cpu.squashedNonSpecRemoved                   4                       # Number of squashed non-spec instructions that were removed (Count)
system.cpu.numIssuedDist::samples              465271                       # Number of insts issued each cycle (Count)
system.cpu.numIssuedDist::mean               0.523568                       # Number of insts issued each cycle (Count)
system.cpu.numIssuedDist::stdev              1.404272                       # Number of insts issued each cycle (Count)
system.cpu.numIssuedDist::underflows                0      0.00%      0.00% # Number of insts issued each cycle (Count)
system.cpu.numIssuedDist::0                    391665     84.18%     84.18% # Number of insts issued each cycle (Count)
system.cpu.numIssuedDist::1                     13499      2.90%     87.08% # Number of insts issued each cycle (Count)
system.cpu.numIssuedDist::2                     12852      2.76%     89.84% # Number of insts issued each cycle (Count)
system.cpu.numIssuedDist::3                     17124      3.68%     93.52% # Number of insts issued each cycle (Count)
system.cpu.numIssuedDist::4                     13718      2.95%     96.47% # Number of insts issued each cycle (Count)
system.cpu.numIssuedDist::5                      7144      1.54%     98.01% # Number of insts issued each cycle (Count)
system.cpu.numIssuedDist::6                      5244      1.13%     99.13% # Number of insts issued each cycle (Count)
system.cpu.numIssuedDist::7                      1230      0.26%     99.40% # Number of insts issued each cycle (Count)
system.cpu.numIssuedDist::8                      2795      0.60%    100.00% # Number of insts issued each cycle (Count)
system.cpu.numIssuedDist::overflows                 0      0.00%    100.00% # Number of insts issued each cycle (Count)
system.cpu.numIssuedDist::min_value                 0                       # Number of insts issued each cycle (Count)
system.cpu.numIssuedDist::max_value                 8                       # Number of insts issued each cycle (Count)
system.cpu.numIssuedDist::total                465271                       # Number of insts issued each cycle (Count)
system.cpu.statFuBusy::No_OpClass                   0      0.00%      0.00% # attempts to use FU when none available (Count)
system.cpu.statFuBusy::IntAlu                    2264     15.54%     15.54% # attempts to use FU when none available (Count)
system.cpu.statFuBusy::IntMult                      0      0.00%     15.54% # attempts to use FU when none available (Count)
system.cpu.statFuBusy::IntDiv                       0      0.00%     15.54% # attempts to use FU when none available (Count)
system.cpu.statFuBusy::ByteMult                     0      0.00%     15.54% # attempts to use FU when none available (Count)
system.cpu.statFuBusy::ByteDiv                      0      0.00%     15.54% # attempts to use FU when none available (Count)
system.cpu.statFuBusy::FloatAdd                     0      0.00%     15.54% # attempts to use FU when none available (Count)
system.cpu.statFuBusy::FloatCmp                     0      0.00%     15.54% # attempts to use FU when none available (Count)
system.cpu.statFuBusy::FloatCvt                     0      0.00%     15.54% # attempts to use FU when none available (Count)
system.cpu.statFuBusy::FloatMult                    0      0.00%     15.54% # attempts to use FU when none available (Count)
system.cpu.statFuBusy::FloatMultAcc                 0      0.00%     15.54% # attempts to use FU when none available (Count)
system.cpu.statFuBusy::FloatDiv                     0      0.00%     15.54% # attempts to use FU when none available (Count)
system.cpu.statFuBusy::FloatMisc                    0      0.00%     15.54% # attempts to use FU when none available (Count)
system.cpu.statFuBusy::FloatSqrt                    0      0.00%     15.54% # attempts to use FU when none available (Count)
system.cpu.statFuBusy::SimdAdd                      0      0.00%     15.54% # attempts to use FU when none available (Count)
system.cpu.statFuBusy::SimdAddAcc                   0      0.00%     15.54% # attempts to use FU when none available (Count)
system.cpu.statFuBusy::SimdAlu                      0      0.00%     15.54% # attempts to use FU when none available (Count)
system.cpu.statFuBusy::SimdCmp                      0      0.00%     15.54% # attempts to use FU when none available (Count)
system.cpu.statFuBusy::SimdCvt                      0      0.00%     15.54% # attempts to use FU when none available (Count)
system.cpu.statFuBusy::SimdMisc                     0      0.00%     15.54% # attempts to use FU when none available (Count)
system.cpu.statFuBusy::SimdMult                     0      0.00%     15.54% # attempts to use FU when none available (Count)
system.cpu.statFuBusy::SimdMultAcc                  0      0.00%     15.54% # attempts to use FU when none available (Count)
system.cpu.statFuBusy::SimdMatMultAcc               0      0.00%     15.54% # attempts to use FU when none available (Count)
system.cpu.statFuBusy::SimdShift                    0      0.00%     15.54% # attempts to use FU when none available (Count)
system.cpu.statFuBusy::SimdShiftAcc                 0      0.00%     15.54% # attempts to use FU when none available (Count)
system.cpu.statFuBusy::SimdDiv                      0      0.00%     15.54% # attempts to use FU when none available (Count)
system.cpu.statFuBusy::SimdSqrt                     0      0.00%     15.54% # attempts to use FU when none available (Count)
system.cpu.statFuBusy::SimdFloatAdd                 0      0.00%     15.54% # attempts to use FU when none available (Count)
system.cpu.statFuBusy::SimdFloatAlu                 0      0.00%     15.54% # attempts to use FU when none available (Count)
system.cpu.statFuBusy::SimdFloatCmp                 0      0.00%     15.54% # attempts to use FU when none available (Count)
system.cpu.statFuBusy::SimdFloatCvt                 0      0.00%     15.54% # attempts to use FU when none available (Count)
system.cpu.statFuBusy::SimdFloatDiv                 0      0.00%     15.54% # attempts to use FU when none available (Count)
system.cpu.statFuBusy::SimdFloatMisc                0      0.00%     15.54% # attempts to use FU when none available (Count)
system.cpu.statFuBusy::SimdFloatMult                0      0.00%     15.54% # attempts to use FU when none available (Count)
system.cpu.statFuBusy::SimdFloatMultAcc             0      0.00%     15.54% # attempts to use FU when none available (Count)
system.cpu.statFuBusy::SimdFloatMatMultAcc            0      0.00%     15.54% # attempts to use FU when none available (Count)
system.cpu.statFuBusy::SimdFloatSqrt                0      0.00%     15.54% # attempts to use FU when none available (Count)
system.cpu.statFuBusy::SimdReduceAdd                0      0.00%     15.54% # attempts to use FU when none available (Count)
system.cpu.statFuBusy::SimdReduceAlu                0      0.00%     15.54% # attempts to use FU when none available (Count)
system.cpu.statFuBusy::SimdReduceCmp                0      0.00%     15.54% # attempts to use FU when none available (Count)
system.cpu.statFuBusy::SimdFloatReduceAdd            0      0.00%     15.54% # attempts to use FU when none available (Count)
system.cpu.statFuBusy::SimdFloatReduceCmp            0      0.00%     15.54% # attempts to use FU when none available (Count)
system.cpu.statFuBusy::SimdAes                      0      0.00%     15.54% # attempts to use FU when none available (Count)
system.cpu.statFuBusy::SimdAesMix                   0      0.00%     15.54% # attempts to use FU when none available (Count)
system.cpu.statFuBusy::SimdSha1Hash                 0      0.00%     15.54% # attempts to use FU when none available (Count)
system.cpu.statFuBusy::SimdSha1Hash2                0      0.00%     15.54% # attempts to use FU when none available (Count)
system.cpu.statFuBusy::SimdSha256Hash               0      0.00%     15.54% # attempts to use FU when none available (Count)
system.cpu.statFuBusy::SimdSha256Hash2              0      0.00%     15.54% # attempts to use FU when none available (Count)
system.cpu.statFuBusy::SimdShaSigma2                0      0.00%     15.54% # attempts to use FU when none available (Count)
system.cpu.statFuBusy::SimdShaSigma3                0      0.00%     15.54% # attempts to use FU when none available (Count)
system.cpu.statFuBusy::SimdPredAlu                  0      0.00%     15.54% # attempts to use FU when none available (Count)
system.cpu.statFuBusy::Matrix                       0      0.00%     15.54% # attempts to use FU when none available (Count)
system.cpu.statFuBusy::MatrixMov                    0      0.00%     15.54% # attempts to use FU when none available (Count)
system.cpu.statFuBusy::MatrixOP                     0      0.00%     15.54% # attempts to use FU when none available (Count)
system.cpu.statFuBusy::MemRead                  11822     81.16%     96.70% # attempts to use FU when none available (Count)
system.cpu.statFuBusy::MemWrite                   481      3.30%    100.00% # attempts to use FU when none available (Count)
system.cpu.statFuBusy::FloatMemRead                 0      0.00%    100.00% # attempts to use FU when none available (Count)
system.cpu.statFuBusy::FloatMemWrite                0      0.00%    100.00% # attempts to use FU when none available (Count)
system.cpu.statFuBusy::IprAccess                    0      0.00%    100.00% # attempts to use FU when none available (Count)
system.cpu.statFuBusy::InstPrefetch                 0      0.00%    100.00% # attempts to use FU when none available (Count)
system.cpu.statFuBusy::VectorUnitStrideLoad            0      0.00%    100.00% # attempts to use FU when none available (Count)
system.cpu.statFuBusy::VectorUnitStrideStore            0      0.00%    100.00% # attempts to use FU when none available (Count)
system.cpu.statFuBusy::VectorUnitStrideMaskLoad            0      0.00%    100.00% # attempts to use FU when none available (Count)
system.cpu.statFuBusy::VectorUnitStrideMaskStore            0      0.00%    100.00% # attempts to use FU when none available (Count)
system.cpu.statFuBusy::VectorStridedLoad            0      0.00%    100.00% # attempts to use FU when none available (Count)
system.cpu.statFuBusy::VectorStridedStore            0      0.00%    100.00% # attempts to use FU when none available (Count)
system.cpu.statFuBusy::VectorIndexedLoad            0      0.00%    100.00% # attempts to use FU when none available (Count)
system.cpu.statFuBusy::VectorIndexedStore            0      0.00%    100.00% # attempts to use FU when none available (Count)
system.cpu.statFuBusy::VectorUnitStrideFaultOnlyFirstLoad            0      0.00%    100.00% # attempts to use FU when none available (Count)
system.cpu.statFuBusy::VectorWholeRegisterLoad            0      0.00%    100.00% # attempts to use FU when none available (Count)
system.cpu.statFuBusy::VectorWholeRegisterStore            0      0.00%    100.00% # attempts to use FU when none available (Count)
system.cpu.statFuBusy::VectorIntegerArith            0      0.00%    100.00% # attempts to use FU when none available (Count)
system.cpu.statFuBusy::VectorFloatArith             0      0.00%    100.00% # attempts to use FU when none available (Count)
system.cpu.statFuBusy::VectorFloatConvert            0      0.00%    100.00% # attempts to use FU when none available (Count)
system.cpu.statFuBusy::VectorIntegerReduce            0      0.00%    100.00% # attempts to use FU when none available (Count)
system.cpu.statFuBusy::VectorFloatReduce            0      0.00%    100.00% # attempts to use FU when none available (Count)
system.cpu.statFuBusy::VectorMisc                   0      0.00%    100.00% # attempts to use FU when none available (Count)
system.cpu.statFuBusy::VectorIntegerExtension            0      0.00%    100.00% # attempts to use FU when none available (Count)
system.cpu.statFuBusy::VectorConfig                 0      0.00%    100.00% # attempts to use FU when none available (Count)
system.cpu.statIssuedInstType_0::No_OpClass           26      0.01%      0.01% # Number of instructions issued per FU type, per thread (Count)
system.cpu.statIssuedInstType_0::IntAlu        125574     51.55%     51.56% # Number of instructions issued per FU type, per thread (Count)
system.cpu.statIssuedInstType_0::IntMult            1      0.00%     51.56% # Number of instructions issued per FU type, per thread (Count)
system.cpu.statIssuedInstType_0::IntDiv             0      0.00%     51.56% # Number of instructions issued per FU type, per thread (Count)
system.cpu.statIssuedInstType_0::ByteMult            0      0.00%     51.56% # Number of instructions issued per FU type, per thread (Count)
system.cpu.statIssuedInstType_0::ByteDiv            0      0.00%     51.56% # Number of instructions issued per FU type, per thread (Count)
system.cpu.statIssuedInstType_0::FloatAdd            0      0.00%     51.56% # Number of instructions issued per FU type, per thread (Count)
system.cpu.statIssuedInstType_0::FloatCmp            0      0.00%     51.56% # Number of instructions issued per FU type, per thread (Count)
system.cpu.statIssuedInstType_0::FloatCvt            0      0.00%     51.56% # Number of instructions issued per FU type, per thread (Count)
system.cpu.statIssuedInstType_0::FloatMult            0      0.00%     51.56% # Number of instructions issued per FU type, per thread (Count)
system.cpu.statIssuedInstType_0::FloatMultAcc            0      0.00%     51.56% # Number of instructions issued per FU type, per thread (Count)
system.cpu.statIssuedInstType_0::FloatDiv            0      0.00%     51.56% # Number of instructions issued per FU type, per thread (Count)
system.cpu.statIssuedInstType_0::FloatMisc            0      0.00%     51.56% # Number of instructions issued per FU type, per thread (Count)
system.cpu.statIssuedInstType_0::FloatSqrt            0      0.00%     51.56% # Number of instructions issued per FU type, per thread (Count)
system.cpu.statIssuedInstType_0::SimdAdd            0      0.00%     51.56% # Number of instructions issued per FU type, per thread (Count)
system.cpu.statIssuedInstType_0::SimdAddAcc            0      0.00%     51.56% # Number of instructions issued per FU type, per thread (Count)
system.cpu.statIssuedInstType_0::SimdAlu            0      0.00%     51.56% # Number of instructions issued per FU type, per thread (Count)
system.cpu.statIssuedInstType_0::SimdCmp            0      0.00%     51.56% # Number of instructions issued per FU type, per thread (Count)
system.cpu.statIssuedInstType_0::SimdCvt            0      0.00%     51.56% # Number of instructions issued per FU type, per thread (Count)
system.cpu.statIssuedInstType_0::SimdMisc            0      0.00%     51.56% # Number of instructions issued per FU type, per thread (Count)
system.cpu.statIssuedInstType_0::SimdMult            0      0.00%     51.56% # Number of instructions issued per FU type, per thread (Count)
system.cpu.statIssuedInstType_0::SimdMultAcc            0      0.00%     51.56% # Number of instructions issued per FU type, per thread (Count)
system.cpu.statIssuedInstType_0::SimdMatMultAcc            0      0.00%     51.56% # Number of instructions issued per FU type, per thread (Count)
system.cpu.statIssuedInstType_0::SimdShift            0      0.00%     51.56% # Number of instructions issued per FU type, per thread (Count)
system.cpu.statIssuedInstType_0::SimdShiftAcc            0      0.00%     51.56% # Number of instructions issued per FU type, per thread (Count)
system.cpu.statIssuedInstType_0::SimdDiv            0      0.00%     51.56% # Number of instructions issued per FU type, per thread (Count)
system.cpu.statIssuedInstType_0::SimdSqrt            0      0.00%     51.56% # Number of instructions issued per FU type, per thread (Count)
system.cpu.statIssuedInstType_0::SimdFloatAdd            0      0.00%     51.56% # Number of instructions issued per FU type, per thread (Count)
system.cpu.statIssuedInstType_0::SimdFloatAlu            0      0.00%     51.56% # Number of instructions issued per FU type, per thread (Count)
system.cpu.statIssuedInstType_0::SimdFloatCmp            0      0.00%     51.56% # Number of instructions issued per FU type, per thread (Count)
system.cpu.statIssuedInstType_0::SimdFloatCvt            0      0.00%     51.56% # Number of instructions issued per FU type, per thread (Count)
system.cpu.statIssuedInstType_0::SimdFloatDiv            0      0.00%     51.56% # Number of instructions issued per FU type, per thread (Count)
system.cpu.statIssuedInstType_0::SimdFloatMisc            0      0.00%     51.56% # Number of instructions issued per FU type, per thread (Count)
system.cpu.statIssuedInstType_0::SimdFloatMult            0      0.00%     51.56% # Number of instructions issued per FU type, per thread (Count)
system.cpu.statIssuedInstType_0::SimdFloatMultAcc            0      0.00%     51.56% # Number of instructions issued per FU type, per thread (Count)
system.cpu.statIssuedInstType_0::SimdFloatMatMultAcc            0      0.00%     51.56% # Number of instructions issued per FU type, per thread (Count)
system.cpu.statIssuedInstType_0::SimdFloatSqrt            0      0.00%     51.56% # Number of instructions issued per FU type, per thread (Count)
system.cpu.statIssuedInstType_0::SimdReduceAdd            0      0.00%     51.56% # Number of instructions issued per FU type, per thread (Count)
system.cpu.statIssuedInstType_0::SimdReduceAlu            0      0.00%     51.56% # Number of instructions issued per FU type, per thread (Count)
system.cpu.statIssuedInstType_0::SimdReduceCmp            0      0.00%     51.56% # Number of instructions issued per FU type, per thread (Count)
system.cpu.statIssuedInstType_0::SimdFloatReduceAdd            0      0.00%     51.56% # Number of instructions issued per FU type, per thread (Count)
system.cpu.statIssuedInstType_0::SimdFloatReduceCmp            0      0.00%     51.56% # Number of instructions issued per FU type, per thread (Count)
system.cpu.statIssuedInstType_0::SimdAes            0      0.00%     51.56% # Number of instructions issued per FU type, per thread (Count)
system.cpu.statIssuedInstType_0::SimdAesMix            0      0.00%     51.56% # Number of instructions issued per FU type, per thread (Count)
system.cpu.statIssuedInstType_0::SimdSha1Hash            0      0.00%     51.56% # Number of instructions issued per FU type, per thread (Count)
system.cpu.statIssuedInstType_0::SimdSha1Hash2            0      0.00%     51.56% # Number of instructions issued per FU type, per thread (Count)
system.cpu.statIssuedInstType_0::SimdSha256Hash            0      0.00%     51.56% # Number of instructions issued per FU type, per thread (Count)
system.cpu.statIssuedInstType_0::SimdSha256Hash2            0      0.00%     51.56% # Number of instructions issued per FU type, per thread (Count)
system.cpu.statIssuedInstType_0::SimdShaSigma2            0      0.00%     51.56% # Number of instructions issued per FU type, per thread (Count)
system.cpu.statIssuedInstType_0::SimdShaSigma3            0      0.00%     51.56% # Number of instructions issued per FU type, per thread (Count)
system.cpu.statIssuedInstType_0::SimdPredAlu            0      0.00%     51.56% # Number of instructions issued per FU type, per thread (Count)
system.cpu.statIssuedInstType_0::Matrix             0      0.00%     51.56% # Number of instructions issued per FU type, per thread (Count)
system.cpu.statIssuedInstType_0::MatrixMov            0      0.00%     51.56% # Number of instructions issued per FU type, per thread (Count)
system.cpu.statIssuedInstType_0::MatrixOP            0      0.00%     51.56% # Number of instructions issued per FU type, per thread (Count)
system.cpu.statIssuedInstType_0::MemRead        99303     40.76%     92.32% # Number of instructions issued per FU type, per thread (Count)
system.cpu.statIssuedInstType_0::MemWrite        18697      7.68%    100.00% # Number of instructions issued per FU type, per thread (Count)
system.cpu.statIssuedInstType_0::FloatMemRead            0      0.00%    100.00% # Number of instructions issued per FU type, per thread (Count)
system.cpu.statIssuedInstType_0::FloatMemWrite            0      0.00%    100.00% # Number of instructions issued per FU type, per thread (Count)
system.cpu.statIssuedInstType_0::IprAccess            0      0.00%    100.00% # Number of instructions issued per FU type, per thread (Count)
system.cpu.statIssuedInstType_0::InstPrefetch            0      0.00%    100.00% # Number of instructions issued per FU type, per thread (Count)
system.cpu.statIssuedInstType_0::VectorUnitStrideLoad            0      0.00%    100.00% # Number of instructions issued per FU type, per thread (Count)
system.cpu.statIssuedInstType_0::VectorUnitStrideStore            0      0.00%    100.00% # Number of instructions issued per FU type, per thread (Count)
system.cpu.statIssuedInstType_0::VectorUnitStrideMaskLoad            0      0.00%    100.00% # Number of instructions issued per FU type, per thread (Count)
system.cpu.statIssuedInstType_0::VectorUnitStrideMaskStore            0      0.00%    100.00% # Number of instructions issued per FU type, per thread (Count)
system.cpu.statIssuedInstType_0::VectorStridedLoad            0      0.00%    100.00% # Number of instructions issued per FU type, per thread (Count)
system.cpu.statIssuedInstType_0::VectorStridedStore            0      0.00%    100.00% # Number of instructions issued per FU type, per thread (Count)
system.cpu.statIssuedInstType_0::VectorIndexedLoad            0      0.00%    100.00% # Number of instructions issued per FU type, per thread (Count)
system.cpu.statIssuedInstType_0::VectorIndexedStore            0      0.00%    100.00% # Number of instructions issued per FU type, per thread (Count)
system.cpu.statIssuedInstType_0::VectorUnitStrideFaultOnlyFirstLoad            0      0.00%    100.00% # Number of instructions issued per FU type, per thread (Count)
system.cpu.statIssuedInstType_0::VectorWholeRegisterLoad            0      0.00%    100.00% # Number of instructions issued per FU type, per thread (Count)
system.cpu.statIssuedInstType_0::VectorWholeRegisterStore            0      0.00%    100.00% # Number of instructions issued per FU type, per thread (Count)
system.cpu.statIssuedInstType_0::VectorIntegerArith            0      0.00%    100.00% # Number of instructions issued per FU type, per thread (Count)
system.cpu.statIssuedInstType_0::VectorFloatArith            0      0.00%    100.00% # Number of instructions issued per FU type, per thread (Count)
system.cpu.statIssuedInstType_0::VectorFloatConvert            0      0.00%    100.00% # Number of instructions issued per FU type, per thread (Count)
system.cpu.statIssuedInstType_0::VectorIntegerReduce            0      0.00%    100.00% # Number of instructions issued per FU type, per thread (Count)
system.cpu.statIssuedInstType_0::VectorFloatReduce            0      0.00%    100.00% # Number of instructions issued per FU type, per thread (Count)
system.cpu.statIssuedInstType_0::VectorMisc            0      0.00%    100.00% # Number of instructions issued per FU type, per thread (Count)
system.cpu.statIssuedInstType_0::VectorIntegerExtension            0      0.00%    100.00% # Number of instructions issued per FU type, per thread (Count)
system.cpu.statIssuedInstType_0::VectorConfig            0      0.00%    100.00% # Number of instructions issued per FU type, per thread (Count)
system.cpu.statIssuedInstType_0::total         243601                       # Number of instructions issued per FU type, per thread (Count)
system.cpu.issueRate                         0.508479                       # Inst issue rate ((Count/Cycle))
system.cpu.fuBusy                               14567                       # FU busy when requested (Count)
system.cpu.fuBusyRate                        0.059799                       # FU busy rate (busy events/executed inst) ((Count/Count))
system.cpu.intInstQueueReads                   967225                       # Number of integer instruction queue reads (Count)
system.cpu.intInstQueueWrites                  191271                       # Number of integer instruction queue writes (Count)
system.cpu.intInstQueueWakeupAccesses          181978                       # Number of integer instruction queue wakeup accesses (Count)
system.cpu.fpInstQueueReads                         0                       # Number of floating instruction queue reads (Count)
system.cpu.fpInstQueueWrites                        0                       # Number of floating instruction queue writes (Count)
system.cpu.fpInstQueueWakeupAccesses                0                       # Number of floating instruction queue wakeup accesses (Count)
system.cpu.vecInstQueueReads                        0                       # Number of vector instruction queue reads (Count)
system.cpu.vecInstQueueWrites                       0                       # Number of vector instruction queue writes (Count)
system.cpu.vecInstQueueWakeupAccesses               0                       # Number of vector instruction queue wakeup accesses (Count)
system.cpu.intAluAccesses                      258142                       # Number of integer alu accesses (Count)
system.cpu.fpAluAccesses                            0                       # Number of floating point alu accesses (Count)
system.cpu.vecAluAccesses                           0                       # Number of vector alu accesses (Count)
system.cpu.numSquashedInsts                       323                       # Number of squashed instructions skipped in execute (Count)
system.cpu.numSwp                                   0                       # Number of swp insts executed (Count)
system.cpu.timesIdled                             515                       # Number of times that the entire CPU went into an idle state and unscheduled itself (Count)
system.cpu.idleCycles                           13807                       # Total number of cycles that the CPU has spent unscheduled due to idling (Cycle)
system.cpu.MemDepUnit__0.insertedLoads          38736                       # Number of loads inserted to the mem dependence unit. (Count)
system.cpu.MemDepUnit__0.insertedStores         19068                       # Number of stores inserted to the mem dependence unit. (Count)
system.cpu.MemDepUnit__0.conflictingLoads         2609                       # Number of conflicting loads. (Count)
system.cpu.MemDepUnit__0.conflictingStores         1310                       # Number of conflicting stores. (Count)
system.cpu.MemDepUnit__1.insertedLoads              0                       # Number of loads inserted to the mem dependence unit. (Count)
system.cpu.MemDepUnit__1.insertedStores             0                       # Number of stores inserted to the mem dependence unit. (Count)
system.cpu.MemDepUnit__1.conflictingLoads            0                       # Number of conflicting loads. (Count)
system.cpu.MemDepUnit__1.conflictingStores            0                       # Number of conflicting stores. (Count)
system.cpu.MemDepUnit__2.insertedLoads              0                       # Number of loads inserted to the mem dependence unit. (Count)
system.cpu.MemDepUnit__2.insertedStores             0                       # Number of stores inserted to the mem dependence unit. (Count)
system.cpu.MemDepUnit__2.conflictingLoads            0                       # Number of conflicting loads. (Count)
system.cpu.MemDepUnit__2.conflictingStores            0                       # Number of conflicting stores. (Count)
system.cpu.MemDepUnit__3.insertedLoads              0                       # Number of loads inserted to the mem dependence unit. (Count)
system.cpu.MemDepUnit__3.insertedStores             0                       # Number of stores inserted to the mem dependence unit. (Count)
system.cpu.MemDepUnit__3.conflictingLoads            0                       # Number of conflicting loads. (Count)
system.cpu.MemDepUnit__3.conflictingStores            0                       # Number of conflicting stores. (Count)
system.cpu.branchPred.lookups_0::NoBranch            0      0.00%      0.00% # Number of BP lookups (Count)
system.cpu.branchPred.lookups_0::Return          6732     14.21%     14.21% # Number of BP lookups (Count)
system.cpu.branchPred.lookups_0::CallDirect         6679     14.10%     28.31% # Number of BP lookups (Count)
system.cpu.branchPred.lookups_0::CallIndirect          112      0.24%     28.55% # Number of BP lookups (Count)
system.cpu.branchPred.lookups_0::DirectCond        29308     61.87%     90.42% # Number of BP lookups (Count)
system.cpu.branchPred.lookups_0::DirectUncond         4525      9.55%     99.97% # Number of BP lookups (Count)
system.cpu.branchPred.lookups_0::IndirectCond            0      0.00%     99.97% # Number of BP lookups (Count)
system.cpu.branchPred.lookups_0::IndirectUncond           12      0.03%    100.00% # Number of BP lookups (Count)
system.cpu.branchPred.lookups_0::total          47368                       # Number of BP lookups (Count)
system.cpu.branchPred.squashes_0::NoBranch            0      0.00%      0.00% # Number of branches that got squashed (completely removed) as an earlier branch was mispredicted. (Count)
system.cpu.branchPred.squashes_0::Return          484     16.51%     16.51% # Number of branches that got squashed (completely removed) as an earlier branch was mispredicted. (Count)
system.cpu.branchPred.squashes_0::CallDirect          443     15.11%     31.63% # Number of branches that got squashed (completely removed) as an earlier branch was mispredicted. (Count)
system.cpu.branchPred.squashes_0::CallIndirect           99      3.38%     35.01% # Number of branches that got squashed (completely removed) as an earlier branch was mispredicted. (Count)
system.cpu.branchPred.squashes_0::DirectCond         1582     53.97%     88.98% # Number of branches that got squashed (completely removed) as an earlier branch was mispredicted. (Count)
system.cpu.branchPred.squashes_0::DirectUncond          317     10.82%     99.80% # Number of branches that got squashed (completely removed) as an earlier branch was mispredicted. (Count)
system.cpu.branchPred.squashes_0::IndirectCond            0      0.00%     99.80% # Number of branches that got squashed (completely removed) as an earlier branch was mispredicted. (Count)
system.cpu.branchPred.squashes_0::IndirectUncond            6      0.20%    100.00% # Number of branches that got squashed (completely removed) as an earlier branch was mispredicted. (Count)
system.cpu.branchPred.squashes_0::total          2931                       # Number of branches that got squashed (completely removed) as an earlier branch was mispredicted. (Count)
system.cpu.branchPred.corrected_0::NoBranch            0      0.00%      0.00% # Number of branches that got corrected but not yet commited. Branches get corrected by decode or after execute. Also a branch misprediction can be detected out-of-order. Therefore, a corrected branch might not end up beeing committed in case an even earlier branch was mispredicted (Count)
system.cpu.branchPred.corrected_0::Return            3      0.91%      0.91% # Number of branches that got corrected but not yet commited. Branches get corrected by decode or after execute. Also a branch misprediction can be detected out-of-order. Therefore, a corrected branch might not end up beeing committed in case an even earlier branch was mispredicted (Count)
system.cpu.branchPred.corrected_0::CallDirect           55     16.72%     17.63% # Number of branches that got corrected but not yet commited. Branches get corrected by decode or after execute. Also a branch misprediction can be detected out-of-order. Therefore, a corrected branch might not end up beeing committed in case an even earlier branch was mispredicted (Count)
system.cpu.branchPred.corrected_0::CallIndirect           14      4.26%     21.88% # Number of branches that got corrected but not yet commited. Branches get corrected by decode or after execute. Also a branch misprediction can be detected out-of-order. Therefore, a corrected branch might not end up beeing committed in case an even earlier branch was mispredicted (Count)
system.cpu.branchPred.corrected_0::DirectCond          200     60.79%     82.67% # Number of branches that got corrected but not yet commited. Branches get corrected by decode or after execute. Also a branch misprediction can be detected out-of-order. Therefore, a corrected branch might not end up beeing committed in case an even earlier branch was mispredicted (Count)
system.cpu.branchPred.corrected_0::DirectUncond           51     15.50%     98.18% # Number of branches that got corrected but not yet commited. Branches get corrected by decode or after execute. Also a branch misprediction can be detected out-of-order. Therefore, a corrected branch might not end up beeing committed in case an even earlier branch was mispredicted (Count)
system.cpu.branchPred.corrected_0::IndirectCond            0      0.00%     98.18% # Number of branches that got corrected but not yet commited. Branches get corrected by decode or after execute. Also a branch misprediction can be detected out-of-order. Therefore, a corrected branch might not end up beeing committed in case an even earlier branch was mispredicted (Count)
system.cpu.branchPred.corrected_0::IndirectUncond            6      1.82%    100.00% # Number of branches that got corrected but not yet commited. Branches get corrected by decode or after execute. Also a branch misprediction can be detected out-of-order. Therefore, a corrected branch might not end up beeing committed in case an even earlier branch was mispredicted (Count)
system.cpu.branchPred.corrected_0::total          329                       # Number of branches that got corrected but not yet commited. Branches get corrected by decode or after execute. Also a branch misprediction can be detected out-of-order. Therefore, a corrected branch might not end up beeing committed in case an even earlier branch was mispredicted (Count)
system.cpu.branchPred.earlyResteers_0::NoBranch            0                       # Number of branches that got redirected after decode. (Count)
system.cpu.branchPred.earlyResteers_0::Return            0                       # Number of branches that got redirected after decode. (Count)
system.cpu.branchPred.earlyResteers_0::CallDirect            0                       # Number of branches that got redirected after decode. (Count)
system.cpu.branchPred.earlyResteers_0::CallIndirect            0                       # Number of branches that got redirected after decode. (Count)
system.cpu.branchPred.earlyResteers_0::DirectCond            0                       # Number of branches that got redirected after decode. (Count)
system.cpu.branchPred.earlyResteers_0::DirectUncond            0                       # Number of branches that got redirected after decode. (Count)
system.cpu.branchPred.earlyResteers_0::IndirectCond            0                       # Number of branches that got redirected after decode. (Count)
system.cpu.branchPred.earlyResteers_0::IndirectUncond            0                       # Number of branches that got redirected after decode. (Count)
system.cpu.branchPred.earlyResteers_0::total            0                       # Number of branches that got redirected after decode. (Count)
system.cpu.branchPred.committed_0::NoBranch            0      0.00%      0.00% # Number of branches finally committed  (Count)
system.cpu.branchPred.committed_0::Return         6248     14.07%     14.07% # Number of branches finally committed  (Count)
system.cpu.branchPred.committed_0::CallDirect         6236     14.05%     28.12% # Number of branches finally committed  (Count)
system.cpu.branchPred.committed_0::CallIndirect           13      0.03%     28.15% # Number of branches finally committed  (Count)
system.cpu.branchPred.committed_0::DirectCond        27725     62.44%     90.59% # Number of branches finally committed  (Count)
system.cpu.branchPred.committed_0::DirectUncond         4172      9.40%     99.99% # Number of branches finally committed  (Count)
system.cpu.branchPred.committed_0::IndirectCond            0      0.00%     99.99% # Number of branches finally committed  (Count)
system.cpu.branchPred.committed_0::IndirectUncond            6      0.01%    100.00% # Number of branches finally committed  (Count)
system.cpu.branchPred.committed_0::total        44400                       # Number of branches finally committed  (Count)
system.cpu.branchPred.mispredicted_0::NoBranch            0      0.00%      0.00% # Number of committed branches that were mispredicted. (Count)
system.cpu.branchPred.mispredicted_0::Return            0      0.00%      0.00% # Number of committed branches that were mispredicted. (Count)
system.cpu.branchPred.mispredicted_0::CallDirect           29     12.45%     12.45% # Number of committed branches that were mispredicted. (Count)
system.cpu.branchPred.mispredicted_0::CallIndirect           13      5.58%     18.03% # Number of committed branches that were mispredicted. (Count)
system.cpu.branchPred.mispredicted_0::DirectCond          160     68.67%     86.70% # Number of committed branches that were mispredicted. (Count)
system.cpu.branchPred.mispredicted_0::DirectUncond           25     10.73%     97.42% # Number of committed branches that were mispredicted. (Count)
system.cpu.branchPred.mispredicted_0::IndirectCond            0      0.00%     97.42% # Number of committed branches that were mispredicted. (Count)
system.cpu.branchPred.mispredicted_0::IndirectUncond            6      2.58%    100.00% # Number of committed branches that were mispredicted. (Count)
system.cpu.branchPred.mispredicted_0::total          233                       # Number of committed branches that were mispredicted. (Count)
system.cpu.branchPred.targetProvider_0::NoTarget         7756     16.37%     16.37% # The component providing the target for taken branches (Count)
system.cpu.branchPred.targetProvider_0::BTB        32877     69.41%     85.78% # The component providing the target for taken branches (Count)
system.cpu.branchPred.targetProvider_0::RAS         6732     14.21%     99.99% # The component providing the target for taken branches (Count)
system.cpu.branchPred.targetProvider_0::Indirect            3      0.01%    100.00% # The component providing the target for taken branches (Count)
system.cpu.branchPred.targetProvider_0::total        47368                       # The component providing the target for taken branches (Count)
system.cpu.branchPred.targetWrong_0::NoBranch          266     80.85%     80.85% # Number of branches where the target was incorrect or not available at prediction time. (Count)
system.cpu.branchPred.targetWrong_0::Return           60     18.24%     99.09% # Number of branches where the target was incorrect or not available at prediction time. (Count)
system.cpu.branchPred.targetWrong_0::CallDirect            3      0.91%    100.00% # Number of branches where the target was incorrect or not available at prediction time. (Count)
system.cpu.branchPred.targetWrong_0::CallIndirect            0      0.00%    100.00% # Number of branches where the target was incorrect or not available at prediction time. (Count)
system.cpu.branchPred.targetWrong_0::DirectCond            0      0.00%    100.00% # Number of branches where the target was incorrect or not available at prediction time. (Count)
system.cpu.branchPred.targetWrong_0::DirectUncond            0      0.00%    100.00% # Number of branches where the target was incorrect or not available at prediction time. (Count)
system.cpu.branchPred.targetWrong_0::IndirectCond            0      0.00%    100.00% # Number of branches where the target was incorrect or not available at prediction time. (Count)
system.cpu.branchPred.targetWrong_0::IndirectUncond            0      0.00%    100.00% # Number of branches where the target was incorrect or not available at prediction time. (Count)
system.cpu.branchPred.targetWrong_0::total          329                       # Number of branches where the target was incorrect or not available at prediction time. (Count)
system.cpu.branchPred.condPredicted             29308                       # Number of conditional branches predicted (Count)
system.cpu.branchPred.condPredictedTaken        22026                       # Number of conditional branches predicted as taken (Count)
system.cpu.branchPred.condIncorrect               329                       # Number of conditional branches incorrect (Count)
system.cpu.branchPred.predTakenBTBMiss            134                       # Number of branches predicted taken but missed in BTB (Count)
system.cpu.branchPred.NotTakenMispredicted          296                       # Number branches predicted 'not taken' but turned out to be taken (Count)
system.cpu.branchPred.TakenMispredicted            33                       # Number branches predicted taken but are actually not taken (Count)
system.cpu.branchPred.BTBLookups                47368                       # Number of BTB lookups (Count)
system.cpu.branchPred.BTBUpdates                  273                       # Number of BTB updates (Count)
system.cpu.branchPred.BTBHits                   35091                       # Number of BTB hits (Count)
system.cpu.branchPred.BTBHitRatio            0.740817                       # BTB Hit Ratio (Ratio)
system.cpu.branchPred.BTBMispredicted             197                       # Number BTB mispredictions. No target found or target wrong (Count)
system.cpu.branchPred.indirectLookups             124                       # Number of indirect predictor lookups. (Count)
system.cpu.branchPred.indirectHits                  3                       # Number of indirect target hits. (Count)
system.cpu.branchPred.indirectMisses              121                       # Number of indirect misses. (Count)
system.cpu.branchPred.indirectMispredicted            0                       # Number of mispredicted indirect branches. (Count)
system.cpu.branchPred.btb.lookups::NoBranch            0      0.00%      0.00% # Number of BTB lookups (Count)
system.cpu.branchPred.btb.lookups::Return         6732     14.21%     14.21% # Number of BTB lookups (Count)
system.cpu.branchPred.btb.lookups::CallDirect         6679     14.10%     28.31% # Number of BTB lookups (Count)
system.cpu.branchPred.btb.lookups::CallIndirect          112      0.24%     28.55% # Number of BTB lookups (Count)
system.cpu.branchPred.btb.lookups::DirectCond        29308     61.87%     90.42% # Number of BTB lookups (Count)
system.cpu.branchPred.btb.lookups::DirectUncond         4525      9.55%     99.97% # Number of BTB lookups (Count)
system.cpu.branchPred.btb.lookups::IndirectCond            0      0.00%     99.97% # Number of BTB lookups (Count)
system.cpu.branchPred.btb.lookups::IndirectUncond           12      0.03%    100.00% # Number of BTB lookups (Count)
system.cpu.branchPred.btb.lookups::total        47368                       # Number of BTB lookups (Count)
system.cpu.branchPred.btb.misses::NoBranch            0      0.00%      0.00% # Number of BTB misses (Count)
system.cpu.branchPred.btb.misses::Return         6722     54.75%     54.75% # Number of BTB misses (Count)
system.cpu.branchPred.btb.misses::CallDirect          106      0.86%     55.62% # Number of BTB misses (Count)
system.cpu.branchPred.btb.misses::CallIndirect           53      0.43%     56.05% # Number of BTB misses (Count)
system.cpu.branchPred.btb.misses::DirectCond         5268     42.91%     98.96% # Number of BTB misses (Count)
system.cpu.branchPred.btb.misses::DirectUncond          116      0.94%     99.90% # Number of BTB misses (Count)
system.cpu.branchPred.btb.misses::IndirectCond            0      0.00%     99.90% # Number of BTB misses (Count)
system.cpu.branchPred.btb.misses::IndirectUncond           12      0.10%    100.00% # Number of BTB misses (Count)
system.cpu.branchPred.btb.misses::total         12277                       # Number of BTB misses (Count)
system.cpu.branchPred.btb.updates::NoBranch            0      0.00%      0.00% # Number of BTB updates (Count)
system.cpu.branchPred.btb.updates::Return            0      0.00%      0.00% # Number of BTB updates (Count)
system.cpu.branchPred.btb.updates::CallDirect           55     20.15%     20.15% # Number of BTB updates (Count)
system.cpu.branchPred.btb.updates::CallIndirect            0      0.00%     20.15% # Number of BTB updates (Count)
system.cpu.branchPred.btb.updates::DirectCond          167     61.17%     81.32% # Number of BTB updates (Count)
system.cpu.branchPred.btb.updates::DirectUncond           51     18.68%    100.00% # Number of BTB updates (Count)
system.cpu.branchPred.btb.updates::IndirectCond            0      0.00%    100.00% # Number of BTB updates (Count)
system.cpu.branchPred.btb.updates::IndirectUncond            0      0.00%    100.00% # Number of BTB updates (Count)
system.cpu.branchPred.btb.updates::total          273                       # Number of BTB updates (Count)
system.cpu.branchPred.btb.mispredict::NoBranch            0      0.00%      0.00% # Number of BTB mispredictions. No target found or target wrong. (Count)
system.cpu.branchPred.btb.mispredict::Return            0      0.00%      0.00% # Number of BTB mispredictions. No target found or target wrong. (Count)
system.cpu.branchPred.btb.mispredict::CallDirect           55     20.15%     20.15% # Number of BTB mispredictions. No target found or target wrong. (Count)
system.cpu.branchPred.btb.mispredict::CallIndirect            0      0.00%     20.15% # Number of BTB mispredictions. No target found or target wrong. (Count)
system.cpu.branchPred.btb.mispredict::DirectCond          167     61.17%     81.32% # Number of BTB mispredictions. No target found or target wrong. (Count)
system.cpu.branchPred.btb.mispredict::DirectUncond           51     18.68%    100.00% # Number of BTB mispredictions. No target found or target wrong. (Count)
system.cpu.branchPred.btb.mispredict::IndirectCond            0      0.00%    100.00% # Number of BTB mispredictions. No target found or target wrong. (Count)
system.cpu.branchPred.btb.mispredict::IndirectUncond            0      0.00%    100.00% # Number of BTB mispredictions. No target found or target wrong. (Count)
system.cpu.branchPred.btb.mispredict::total          273                       # Number of BTB mispredictions. No target found or target wrong. (Count)
system.cpu.branchPred.btb.power_state.pwrStateResidencyTicks::UNDEFINED    479077000                       # Cumulative time (in ticks) in various power states (Tick)
system.cpu.branchPred.indirectBranchPred.lookups          124                       # Number of lookups (Count)
system.cpu.branchPred.indirectBranchPred.hits            3                       # Number of hits of a tag (Count)
system.cpu.branchPred.indirectBranchPred.misses          121                       # Number of misses (Count)
system.cpu.branchPred.indirectBranchPred.targetRecords           20                       # Number of targets that where recorded/installed in the cache (Count)
system.cpu.branchPred.indirectBranchPred.indirectRecords          144                       # Number of indirect branches/calls recorded in the indirect hist (Count)
system.cpu.branchPred.indirectBranchPred.speculativeOverflows            0                       # Number of times more than the allowed capacity for speculative branches/calls where in flight and destroy the path history (Count)
system.cpu.branchPred.ras.pushes                 7275                       # Number of times a PC was pushed onto the RAS (Count)
system.cpu.branchPred.ras.pops                   7274                       # Number of times a PC was poped from the RAS (Count)
system.cpu.branchPred.ras.squashes               1026                       # Number of times the stack operation was squashed due to wrong speculation. (Count)
system.cpu.branchPred.ras.used                   6248                       # Number of times the RAS is the provider (Count)
system.cpu.branchPred.ras.correct                6248                       # Number of times the RAS is the provider and the prediction is correct (Count)
system.cpu.branchPred.ras.incorrect                 0                       # Number of times the RAS is the provider and the prediction is wrong (Count)
system.cpu.commit.commitSquashedInsts            6056                       # The number of squashed insts skipped by commit (Count)
system.cpu.commit.commitNonSpecStalls              26                       # The number of times commit has been forced to stall to communicate backwards (Count)
system.cpu.commit.branchMispredicts               210                       # The number of times a branch was mispredicted (Count)
system.cpu.commit.numCommittedDist::samples       464335                       # Number of insts commited each cycle (Count)
system.cpu.commit.numCommittedDist::mean     0.383193                       # Number of insts commited each cycle (Count)
system.cpu.commit.numCommittedDist::stdev     1.519424                       # Number of insts commited each cycle (Count)
system.cpu.commit.numCommittedDist::underflows            0      0.00%      0.00% # Number of insts commited each cycle (Count)
system.cpu.commit.numCommittedDist::0          417247     89.86%     89.86% # Number of insts commited each cycle (Count)
system.cpu.commit.numCommittedDist::1           18501      3.98%     93.84% # Number of insts commited each cycle (Count)
system.cpu.commit.numCommittedDist::2           10311      2.22%     96.06% # Number of insts commited each cycle (Count)
system.cpu.commit.numCommittedDist::3             595      0.13%     96.19% # Number of insts commited each cycle (Count)
system.cpu.commit.numCommittedDist::4             653      0.14%     96.33% # Number of insts commited each cycle (Count)
system.cpu.commit.numCommittedDist::5             322      0.07%     96.40% # Number of insts commited each cycle (Count)
system.cpu.commit.numCommittedDist::6              52      0.01%     96.41% # Number of insts commited each cycle (Count)
system.cpu.commit.numCommittedDist::7             744      0.16%     96.57% # Number of insts commited each cycle (Count)
system.cpu.commit.numCommittedDist::8           15910      3.43%    100.00% # Number of insts commited each cycle (Count)
system.cpu.commit.numCommittedDist::overflows            0      0.00%    100.00% # Number of insts commited each cycle (Count)
system.cpu.commit.numCommittedDist::min_value            0                       # Number of insts commited each cycle (Count)
system.cpu.commit.numCommittedDist::max_value            8                       # Number of insts commited each cycle (Count)
system.cpu.commit.numCommittedDist::total       464335                       # Number of insts commited each cycle (Count)
system.cpu.commit.amos                              0                       # Number of atomic instructions committed (Count)
system.cpu.commit.membars                           0                       # Number of memory barriers committed (Count)
system.cpu.commit.functionCalls                  6249                       # Number of function calls committed. (Count)
system.cpu.commit.committedInstType_0::No_OpClass            0      0.00%      0.00% # Class of committed instruction (Count)
system.cpu.commit.committedInstType_0::IntAlu       122150     68.65%     68.65% # Class of committed instruction (Count)
system.cpu.commit.committedInstType_0::IntMult            1      0.00%     68.65% # Class of committed instruction (Count)
system.cpu.commit.committedInstType_0::IntDiv            0      0.00%     68.65% # Class of committed instruction (Count)
system.cpu.commit.committedInstType_0::ByteMult            0      0.00%     68.65% # Class of committed instruction (Count)
system.cpu.commit.committedInstType_0::ByteDiv            0      0.00%     68.65% # Class of committed instruction (Count)
system.cpu.commit.committedInstType_0::FloatAdd            0      0.00%     68.65% # Class of committed instruction (Count)
system.cpu.commit.committedInstType_0::FloatCmp            0      0.00%     68.65% # Class of committed instruction (Count)
system.cpu.commit.committedInstType_0::FloatCvt            0      0.00%     68.65% # Class of committed instruction (Count)
system.cpu.commit.committedInstType_0::FloatMult            0      0.00%     68.65% # Class of committed instruction (Count)
system.cpu.commit.committedInstType_0::FloatMultAcc            0      0.00%     68.65% # Class of committed instruction (Count)
system.cpu.commit.committedInstType_0::FloatDiv            0      0.00%     68.65% # Class of committed instruction (Count)
system.cpu.commit.committedInstType_0::FloatMisc            0      0.00%     68.65% # Class of committed instruction (Count)
system.cpu.commit.committedInstType_0::FloatSqrt            0      0.00%     68.65% # Class of committed instruction (Count)
system.cpu.commit.committedInstType_0::SimdAdd            0      0.00%     68.65% # Class of committed instruction (Count)
system.cpu.commit.committedInstType_0::SimdAddAcc            0      0.00%     68.65% # Class of committed instruction (Count)
system.cpu.commit.committedInstType_0::SimdAlu            0      0.00%     68.65% # Class of committed instruction (Count)
system.cpu.commit.committedInstType_0::SimdCmp            0      0.00%     68.65% # Class of committed instruction (Count)
system.cpu.commit.committedInstType_0::SimdCvt            0      0.00%     68.65% # Class of committed instruction (Count)
system.cpu.commit.committedInstType_0::SimdMisc            0      0.00%     68.65% # Class of committed instruction (Count)
system.cpu.commit.committedInstType_0::SimdMult            0      0.00%     68.65% # Class of committed instruction (Count)
system.cpu.commit.committedInstType_0::SimdMultAcc            0      0.00%     68.65% # Class of committed instruction (Count)
system.cpu.commit.committedInstType_0::SimdMatMultAcc            0      0.00%     68.65% # Class of committed instruction (Count)
system.cpu.commit.committedInstType_0::SimdShift            0      0.00%     68.65% # Class of committed instruction (Count)
system.cpu.commit.committedInstType_0::SimdShiftAcc            0      0.00%     68.65% # Class of committed instruction (Count)
system.cpu.commit.committedInstType_0::SimdDiv            0      0.00%     68.65% # Class of committed instruction (Count)
system.cpu.commit.committedInstType_0::SimdSqrt            0      0.00%     68.65% # Class of committed instruction (Count)
system.cpu.commit.committedInstType_0::SimdFloatAdd            0      0.00%     68.65% # Class of committed instruction (Count)
system.cpu.commit.committedInstType_0::SimdFloatAlu            0      0.00%     68.65% # Class of committed instruction (Count)
system.cpu.commit.committedInstType_0::SimdFloatCmp            0      0.00%     68.65% # Class of committed instruction (Count)
system.cpu.commit.committedInstType_0::SimdFloatCvt            0      0.00%     68.65% # Class of committed instruction (Count)
system.cpu.commit.committedInstType_0::SimdFloatDiv            0      0.00%     68.65% # Class of committed instruction (Count)
system.cpu.commit.committedInstType_0::SimdFloatMisc            0      0.00%     68.65% # Class of committed instruction (Count)
system.cpu.commit.committedInstType_0::SimdFloatMult            0      0.00%     68.65% # Class of committed instruction (Count)
system.cpu.commit.committedInstType_0::SimdFloatMultAcc            0      0.00%     68.65% # Class of committed instruction (Count)
system.cpu.commit.committedInstType_0::SimdFloatMatMultAcc            0      0.00%     68.65% # Class of committed instruction (Count)
system.cpu.commit.committedInstType_0::SimdFloatSqrt            0      0.00%     68.65% # Class of committed instruction (Count)
system.cpu.commit.committedInstType_0::SimdReduceAdd            0      0.00%     68.65% # Class of committed instruction (Count)
system.cpu.commit.committedInstType_0::SimdReduceAlu            0      0.00%     68.65% # Class of committed instruction (Count)
system.cpu.commit.committedInstType_0::SimdReduceCmp            0      0.00%     68.65% # Class of committed instruction (Count)
system.cpu.commit.committedInstType_0::SimdFloatReduceAdd            0      0.00%     68.65% # Class of committed instruction (Count)
system.cpu.commit.committedInstType_0::SimdFloatReduceCmp            0      0.00%     68.65% # Class of committed instruction (Count)
system.cpu.commit.committedInstType_0::SimdAes            0      0.00%     68.65% # Class of committed instruction (Count)
system.cpu.commit.committedInstType_0::SimdAesMix            0      0.00%     68.65% # Class of committed instruction (Count)
system.cpu.commit.committedInstType_0::SimdSha1Hash            0      0.00%     68.65% # Class of committed instruction (Count)
system.cpu.commit.committedInstType_0::SimdSha1Hash2            0      0.00%     68.65% # Class of committed instruction (Count)
system.cpu.commit.committedInstType_0::SimdSha256Hash            0      0.00%     68.65% # Class of committed instruction (Count)
system.cpu.commit.committedInstType_0::SimdSha256Hash2            0      0.00%     68.65% # Class of committed instruction (Count)
system.cpu.commit.committedInstType_0::SimdShaSigma2            0      0.00%     68.65% # Class of committed instruction (Count)
system.cpu.commit.committedInstType_0::SimdShaSigma3            0      0.00%     68.65% # Class of committed instruction (Count)
system.cpu.commit.committedInstType_0::SimdPredAlu            0      0.00%     68.65% # Class of committed instruction (Count)
system.cpu.commit.committedInstType_0::Matrix            0      0.00%     68.65% # Class of committed instruction (Count)
system.cpu.commit.committedInstType_0::MatrixMov            0      0.00%     68.65% # Class of committed instruction (Count)
system.cpu.commit.committedInstType_0::MatrixOP            0      0.00%     68.65% # Class of committed instruction (Count)
system.cpu.commit.committedInstType_0::MemRead        37557     21.11%     89.76% # Class of committed instruction (Count)
system.cpu.commit.committedInstType_0::MemWrite        18222     10.24%    100.00% # Class of committed instruction (Count)
system.cpu.commit.committedInstType_0::FloatMemRead            0      0.00%    100.00% # Class of committed instruction (Count)
system.cpu.commit.committedInstType_0::FloatMemWrite            0      0.00%    100.00% # Class of committed instruction (Count)
system.cpu.commit.committedInstType_0::IprAccess            0      0.00%    100.00% # Class of committed instruction (Count)
system.cpu.commit.committedInstType_0::InstPrefetch            0      0.00%    100.00% # Class of committed instruction (Count)
system.cpu.commit.committedInstType_0::VectorUnitStrideLoad            0      0.00%    100.00% # Class of committed instruction (Count)
system.cpu.commit.committedInstType_0::VectorUnitStrideStore            0      0.00%    100.00% # Class of committed instruction (Count)
system.cpu.commit.committedInstType_0::VectorUnitStrideMaskLoad            0      0.00%    100.00% # Class of committed instruction (Count)
system.cpu.commit.committedInstType_0::VectorUnitStrideMaskStore            0      0.00%    100.00% # Class of committed instruction (Count)
system.cpu.commit.committedInstType_0::VectorStridedLoad            0      0.00%    100.00% # Class of committed instruction (Count)
system.cpu.commit.committedInstType_0::VectorStridedStore            0      0.00%    100.00% # Class of committed instruction (Count)
system.cpu.commit.committedInstType_0::VectorIndexedLoad            0      0.00%    100.00% # Class of committed instruction (Count)
system.cpu.commit.committedInstType_0::VectorIndexedStore            0      0.00%    100.00% # Class of committed instruction (Count)
system.cpu.commit.committedInstType_0::VectorUnitStrideFaultOnlyFirstLoad            0      0.00%    100.00% # Class of committed instruction (Count)
system.cpu.commit.committedInstType_0::VectorWholeRegisterLoad            0      0.00%    100.00% # Class of committed instruction (Count)
system.cpu.commit.committedInstType_0::VectorWholeRegisterStore            0      0.00%    100.00% # Class of committed instruction (Count)
system.cpu.commit.committedInstType_0::VectorIntegerArith            0      0.00%    100.00% # Class of committed instruction (Count)
system.cpu.commit.committedInstType_0::VectorFloatArith            0      0.00%    100.00% # Class of committed instruction (Count)
system.cpu.commit.committedInstType_0::VectorFloatConvert            0      0.00%    100.00% # Class of committed instruction (Count)
system.cpu.commit.committedInstType_0::VectorIntegerReduce            0      0.00%    100.00% # Class of committed instruction (Count)
system.cpu.commit.committedInstType_0::VectorFloatReduce            0      0.00%    100.00% # Class of committed instruction (Count)
system.cpu.commit.committedInstType_0::VectorMisc            0      0.00%    100.00% # Class of committed instruction (Count)
system.cpu.commit.committedInstType_0::VectorIntegerExtension            0      0.00%    100.00% # Class of committed instruction (Count)
system.cpu.commit.committedInstType_0::VectorConfig            0      0.00%    100.00% # Class of committed instruction (Count)
system.cpu.commit.committedInstType_0::total       177930                       # Class of committed instruction (Count)
system.cpu.commit.commitEligibleSamples         15910                       # number cycles where commit BW limit reached (Cycle)
system.cpu.commitStats0.numInsts               177930                       # Number of instructions committed (thread level) (Count)
system.cpu.commitStats0.numOps                 177930                       # Number of ops (including micro ops) committed (thread level) (Count)
system.cpu.commitStats0.numInstsNotNOP         177930                       # Number of instructions committed excluding NOPs or prefetches (Count)
system.cpu.commitStats0.numOpsNotNOP           177930                       # Number of Ops (including micro ops) Simulated (Count)
system.cpu.commitStats0.cpi                  2.692508                       # CPI: cycles per instruction (thread level) ((Cycle/Count))
system.cpu.commitStats0.ipc                  0.371401                       # IPC: instructions per cycle (thread level) ((Count/Cycle))
system.cpu.commitStats0.numMemRefs              55779                       # Number of memory references committed (Count)
system.cpu.commitStats0.numFpInsts                  0                       # Number of float instructions (Count)
system.cpu.commitStats0.numIntInsts            173769                       # Number of integer instructions (Count)
system.cpu.commitStats0.numLoadInsts            37557                       # Number of load instructions (Count)
system.cpu.commitStats0.numStoreInsts           18222                       # Number of store instructions (Count)
system.cpu.commitStats0.numVecInsts                 0                       # Number of vector instructions (Count)
system.cpu.commitStats0.committedInstType::No_OpClass            0      0.00%      0.00% # Class of committed instruction. (Count)
system.cpu.commitStats0.committedInstType::IntAlu       122150     68.65%     68.65% # Class of committed instruction. (Count)
system.cpu.commitStats0.committedInstType::IntMult            1      0.00%     68.65% # Class of committed instruction. (Count)
system.cpu.commitStats0.committedInstType::IntDiv            0      0.00%     68.65% # Class of committed instruction. (Count)
system.cpu.commitStats0.committedInstType::ByteMult            0      0.00%     68.65% # Class of committed instruction. (Count)
system.cpu.commitStats0.committedInstType::ByteDiv            0      0.00%     68.65% # Class of committed instruction. (Count)
system.cpu.commitStats0.committedInstType::FloatAdd            0      0.00%     68.65% # Class of committed instruction. (Count)
system.cpu.commitStats0.committedInstType::FloatCmp            0      0.00%     68.65% # Class of committed instruction. (Count)
system.cpu.commitStats0.committedInstType::FloatCvt            0      0.00%     68.65% # Class of committed instruction. (Count)
system.cpu.commitStats0.committedInstType::FloatMult            0      0.00%     68.65% # Class of committed instruction. (Count)
system.cpu.commitStats0.committedInstType::FloatMultAcc            0      0.00%     68.65% # Class of committed instruction. (Count)
system.cpu.commitStats0.committedInstType::FloatDiv            0      0.00%     68.65% # Class of committed instruction. (Count)
system.cpu.commitStats0.committedInstType::FloatMisc            0      0.00%     68.65% # Class of committed instruction. (Count)
system.cpu.commitStats0.committedInstType::FloatSqrt            0      0.00%     68.65% # Class of committed instruction. (Count)
system.cpu.commitStats0.committedInstType::SimdAdd            0      0.00%     68.65% # Class of committed instruction. (Count)
system.cpu.commitStats0.committedInstType::SimdAddAcc            0      0.00%     68.65% # Class of committed instruction. (Count)
system.cpu.commitStats0.committedInstType::SimdAlu            0      0.00%     68.65% # Class of committed instruction. (Count)
system.cpu.commitStats0.committedInstType::SimdCmp            0      0.00%     68.65% # Class of committed instruction. (Count)
system.cpu.commitStats0.committedInstType::SimdCvt            0      0.00%     68.65% # Class of committed instruction. (Count)
system.cpu.commitStats0.committedInstType::SimdMisc            0      0.00%     68.65% # Class of committed instruction. (Count)
system.cpu.commitStats0.committedInstType::SimdMult            0      0.00%     68.65% # Class of committed instruction. (Count)
system.cpu.commitStats0.committedInstType::SimdMultAcc            0      0.00%     68.65% # Class of committed instruction. (Count)
system.cpu.commitStats0.committedInstType::SimdMatMultAcc            0      0.00%     68.65% # Class of committed instruction. (Count)
system.cpu.commitStats0.committedInstType::SimdShift            0      0.00%     68.65% # Class of committed instruction. (Count)
system.cpu.commitStats0.committedInstType::SimdShiftAcc            0      0.00%     68.65% # Class of committed instruction. (Count)
system.cpu.commitStats0.committedInstType::SimdDiv            0      0.00%     68.65% # Class of committed instruction. (Count)
system.cpu.commitStats0.committedInstType::SimdSqrt            0      0.00%     68.65% # Class of committed instruction. (Count)
system.cpu.commitStats0.committedInstType::SimdFloatAdd            0      0.00%     68.65% # Class of committed instruction. (Count)
system.cpu.commitStats0.committedInstType::SimdFloatAlu            0      0.00%     68.65% # Class of committed instruction. (Count)
system.cpu.commitStats0.committedInstType::SimdFloatCmp            0      0.00%     68.65% # Class of committed instruction. (Count)
system.cpu.commitStats0.committedInstType::SimdFloatCvt            0      0.00%     68.65% # Class of committed instruction. (Count)
system.cpu.commitStats0.committedInstType::SimdFloatDiv            0      0.00%     68.65% # Class of committed instruction. (Count)
system.cpu.commitStats0.committedInstType::SimdFloatMisc            0      0.00%     68.65% # Class of committed instruction. (Count)
system.cpu.commitStats0.committedInstType::SimdFloatMult            0      0.00%     68.65% # Class of committed instruction. (Count)
system.cpu.commitStats0.committedInstType::SimdFloatMultAcc            0      0.00%     68.65% # Class of committed instruction. (Count)
system.cpu.commitStats0.committedInstType::SimdFloatMatMultAcc            0      0.00%     68.65% # Class of committed instruction. (Count)
system.cpu.commitStats0.committedInstType::SimdFloatSqrt            0      0.00%     68.65% # Class of committed instruction. (Count)
system.cpu.commitStats0.committedInstType::SimdReduceAdd            0      0.00%     68.65% # Class of committed instruction. (Count)
system.cpu.commitStats0.committedInstType::SimdReduceAlu            0      0.00%     68.65% # Class of committed instruction. (Count)
system.cpu.commitStats0.committedInstType::SimdReduceCmp            0      0.00%     68.65% # Class of committed instruction. (Count)
system.cpu.commitStats0.committedInstType::SimdFloatReduceAdd            0      0.00%     68.65% # Class of committed instruction. (Count)
system.cpu.commitStats0.committedInstType::SimdFloatReduceCmp            0      0.00%     68.65% # Class of committed instruction. (Count)
system.cpu.commitStats0.committedInstType::SimdAes            0      0.00%     68.65% # Class of committed instruction. (Count)
system.cpu.commitStats0.committedInstType::SimdAesMix            0      0.00%     68.65% # Class of committed instruction. (Count)
system.cpu.commitStats0.committedInstType::SimdSha1Hash            0      0.00%     68.65% # Class of committed instruction. (Count)
system.cpu.commitStats0.committedInstType::SimdSha1Hash2            0      0.00%     68.65% # Class of committed instruction. (Count)
system.cpu.commitStats0.committedInstType::SimdSha256Hash            0      0.00%     68.65% # Class of committed instruction. (Count)
system.cpu.commitStats0.committedInstType::SimdSha256Hash2            0      0.00%     68.65% # Class of committed instruction. (Count)
system.cpu.commitStats0.committedInstType::SimdShaSigma2            0      0.00%     68.65% # Class of committed instruction. (Count)
system.cpu.commitStats0.committedInstType::SimdShaSigma3            0      0.00%     68.65% # Class of committed instruction. (Count)
system.cpu.commitStats0.committedInstType::SimdPredAlu            0      0.00%     68.65% # Class of committed instruction. (Count)
system.cpu.commitStats0.committedInstType::Matrix            0      0.00%     68.65% # Class of committed instruction. (Count)
system.cpu.commitStats0.committedInstType::MatrixMov            0      0.00%     68.65% # Class of committed instruction. (Count)
system.cpu.commitStats0.committedInstType::MatrixOP            0      0.00%     68.65% # Class of committed instruction. (Count)
system.cpu.commitStats0.committedInstType::MemRead        37557     21.11%     89.76% # Class of committed instruction. (Count)
system.cpu.commitStats0.committedInstType::MemWrite        18222     10.24%    100.00% # Class of committed instruction. (Count)
system.cpu.commitStats0.committedInstType::FloatMemRead            0      0.00%    100.00% # Class of committed instruction. (Count)
system.cpu.commitStats0.committedInstType::FloatMemWrite            0      0.00%    100.00% # Class of committed instruction. (Count)
system.cpu.commitStats0.committedInstType::IprAccess            0      0.00%    100.00% # Class of committed instruction. (Count)
system.cpu.commitStats0.committedInstType::InstPrefetch            0      0.00%    100.00% # Class of committed instruction. (Count)
system.cpu.commitStats0.committedInstType::VectorUnitStrideLoad            0      0.00%    100.00% # Class of committed instruction. (Count)
system.cpu.commitStats0.committedInstType::VectorUnitStrideStore            0      0.00%    100.00% # Class of committed instruction. (Count)
system.cpu.commitStats0.committedInstType::VectorUnitStrideMaskLoad            0      0.00%    100.00% # Class of committed instruction. (Count)
system.cpu.commitStats0.committedInstType::VectorUnitStrideMaskStore            0      0.00%    100.00% # Class of committed instruction. (Count)
system.cpu.commitStats0.committedInstType::VectorStridedLoad            0      0.00%    100.00% # Class of committed instruction. (Count)
system.cpu.commitStats0.committedInstType::VectorStridedStore            0      0.00%    100.00% # Class of committed instruction. (Count)
system.cpu.commitStats0.committedInstType::VectorIndexedLoad            0      0.00%    100.00% # Class of committed instruction. (Count)
system.cpu.commitStats0.committedInstType::VectorIndexedStore            0      0.00%    100.00% # Class of committed instruction. (Count)
system.cpu.commitStats0.committedInstType::VectorUnitStrideFaultOnlyFirstLoad            0      0.00%    100.00% # Class of committed instruction. (Count)
system.cpu.commitStats0.committedInstType::VectorWholeRegisterLoad            0      0.00%    100.00% # Class of committed instruction. (Count)
system.cpu.commitStats0.committedInstType::VectorWholeRegisterStore            0      0.00%    100.00% # Class of committed instruction. (Count)
system.cpu.commitStats0.committedInstType::VectorIntegerArith            0      0.00%    100.00% # Class of committed instruction. (Count)
system.cpu.commitStats0.committedInstType::VectorFloatArith            0      0.00%    100.00% # Class of committed instruction. (Count)
system.cpu.commitStats0.committedInstType::VectorFloatConvert            0      0.00%    100.00% # Class of committed instruction. (Count)
system.cpu.commitStats0.committedInstType::VectorIntegerReduce            0      0.00%    100.00% # Class of committed instruction. (Count)
system.cpu.commitStats0.committedInstType::VectorFloatReduce            0      0.00%    100.00% # Class of committed instruction. (Count)
system.cpu.commitStats0.committedInstType::VectorMisc            0      0.00%    100.00% # Class of committed instruction. (Count)
system.cpu.commitStats0.committedInstType::VectorIntegerExtension            0      0.00%    100.00% # Class of committed instruction. (Count)
system.cpu.commitStats0.committedInstType::VectorConfig            0      0.00%    100.00% # Class of committed instruction. (Count)
system.cpu.commitStats0.committedInstType::total       177930                       # Class of committed instruction. (Count)
system.cpu.commitStats0.committedControl::IsControl        44400                       # Class of control type instructions committed (Count)
system.cpu.commitStats0.committedControl::IsDirectControl        38133                       # Class of control type instructions committed (Count)
system.cpu.commitStats0.committedControl::IsIndirectControl         6267                       # Class of control type instructions committed (Count)
system.cpu.commitStats0.committedControl::IsCondControl        27725                       # Class of control type instructions committed (Count)
system.cpu.commitStats0.committedControl::IsUncondControl        16675                       # Class of control type instructions committed (Count)
system.cpu.commitStats0.committedControl::IsCall         6249                       # Class of control type instructions committed (Count)
system.cpu.commitStats0.committedControl::IsReturn         6248                       # Class of control type instructions committed (Count)
system.cpu.dcache.demandHits::cpu.data          37175                       # number of demand (read+write) hits (Count)
system.cpu.dcache.demandHits::total             37175                       # number of demand (read+write) hits (Count)
system.cpu.dcache.overallHits::cpu.data         37175                       # number of overall hits (Count)
system.cpu.dcache.overallHits::total            37175                       # number of overall hits (Count)
system.cpu.dcache.demandMisses::cpu.data         8937                       # number of demand (read+write) misses (Count)
system.cpu.dcache.demandMisses::total            8937                       # number of demand (read+write) misses (Count)
system.cpu.dcache.overallMisses::cpu.data         8937                       # number of overall misses (Count)
[...]
system.mem_ctrl.dram.numReads::total             9404                       # Number of read requests responded to by this memory (Count)
system.mem_ctrl.dram.numWrites::writebacks         3654                       # Number of write requests responded to by this memory (Count)
system.mem_ctrl.dram.numWrites::total            3654                       # Number of write requests responded to by this memory (Count)
system.mem_ctrl.dram.bwRead::cpu.inst        62386631                       # Total read bandwidth from this memory ((Byte/Second))
system.mem_ctrl.dram.bwRead::cpu.data      1193895762                       # Total read bandwidth from this memory ((Byte/Second))
system.mem_ctrl.dram.bwRead::total         1256282393                       # Total read bandwidth from this memory ((Byte/Second))
system.mem_ctrl.dram.bwInstRead::cpu.inst     62386631                       # Instruction read bandwidth from this memory ((Byte/Second))
system.mem_ctrl.dram.bwInstRead::total       62386631                       # Instruction read bandwidth from this memory ((Byte/Second))
system.mem_ctrl.dram.bwWrite::writebacks    488138650                       # Write bandwidth from this memory ((Byte/Second))
system.mem_ctrl.dram.bwWrite::total         488138650                       # Write bandwidth from this memory ((Byte/Second))
system.mem_ctrl.dram.bwTotal::writebacks    488138650                       # Total bandwidth to/from this memory ((Byte/Second))
system.mem_ctrl.dram.bwTotal::cpu.inst       62386631                       # Total bandwidth to/from this memory ((Byte/Second))
system.mem_ctrl.dram.bwTotal::cpu.data     1193895762                       # Total bandwidth to/from this memory ((Byte/Second))
system.mem_ctrl.dram.bwTotal::total        1744421043                       # Total bandwidth to/from this memory ((Byte/Second))
system.mem_ctrl.dram.readBursts                  6760                       # Number of DRAM read bursts (Count)
system.mem_ctrl.dram.writeBursts                 1439                       # Number of DRAM write bursts (Count)
system.mem_ctrl.dram.perBankRdBursts::0           283                       # Per bank write bursts (Count)
system.mem_ctrl.dram.perBankRdBursts::1           119                       # Per bank write bursts (Count)
system.mem_ctrl.dram.perBankRdBursts::2             2                       # Per bank write bursts (Count)
system.mem_ctrl.dram.perBankRdBursts::3            60                       # Per bank write bursts (Count)
system.mem_ctrl.dram.perBankRdBursts::4             4                       # Per bank write bursts (Count)
system.mem_ctrl.dram.perBankRdBursts::5          1028                       # Per bank write bursts (Count)
system.mem_ctrl.dram.perBankRdBursts::6           140                       # Per bank write bursts (Count)
system.mem_ctrl.dram.perBankRdBursts::7           388                       # Per bank write bursts (Count)
system.mem_ctrl.dram.perBankRdBursts::8           640                       # Per bank write bursts (Count)
system.mem_ctrl.dram.perBankRdBursts::9           640                       # Per bank write bursts (Count)
system.mem_ctrl.dram.perBankRdBursts::10          640                       # Per bank write bursts (Count)
system.mem_ctrl.dram.perBankRdBursts::11          640                       # Per bank write bursts (Count)
system.mem_ctrl.dram.perBankRdBursts::12          640                       # Per bank write bursts (Count)
system.mem_ctrl.dram.perBankRdBursts::13          640                       # Per bank write bursts (Count)
system.mem_ctrl.dram.perBankRdBursts::14          641                       # Per bank write bursts (Count)
system.mem_ctrl.dram.perBankRdBursts::15          255                       # Per bank write bursts (Count)
system.mem_ctrl.dram.perBankWrBursts::0             0                       # Per bank write bursts (Count)
system.mem_ctrl.dram.perBankWrBursts::1             0                       # Per bank write bursts (Count)
system.mem_ctrl.dram.perBankWrBursts::2             0                       # Per bank write bursts (Count)
system.mem_ctrl.dram.perBankWrBursts::3             0                       # Per bank write bursts (Count)
system.mem_ctrl.dram.perBankWrBursts::4             0                       # Per bank write bursts (Count)
system.mem_ctrl.dram.perBankWrBursts::5           141                       # Per bank write bursts (Count)
system.mem_ctrl.dram.perBankWrBursts::6           129                       # Per bank write bursts (Count)
system.mem_ctrl.dram.perBankWrBursts::7           207                       # Per bank write bursts (Count)
system.mem_ctrl.dram.perBankWrBursts::8           130                       # Per bank write bursts (Count)
system.mem_ctrl.dram.perBankWrBursts::9           128                       # Per bank write bursts (Count)
system.mem_ctrl.dram.perBankWrBursts::10          128                       # Per bank write bursts (Count)
system.mem_ctrl.dram.perBankWrBursts::11          128                       # Per bank write bursts (Count)
system.mem_ctrl.dram.perBankWrBursts::12          128                       # Per bank write bursts (Count)
system.mem_ctrl.dram.perBankWrBursts::13          128                       # Per bank write bursts (Count)
system.mem_ctrl.dram.perBankWrBursts::14          130                       # Per bank write bursts (Count)
system.mem_ctrl.dram.perBankWrBursts::15           62                       # Per bank write bursts (Count)
system.mem_ctrl.dram.totQLat                 30498500                       # Total ticks spent queuing (Tick)
system.mem_ctrl.dram.totBusLat               33800000                       # Total ticks spent in databus transfers (Tick)
system.mem_ctrl.dram.totMemAccLat           157248500                       # Total ticks spent from burst creation until serviced by the DRAM (Tick)
system.mem_ctrl.dram.avgQLat                  4511.61                       # Average queueing delay per DRAM burst ((Tick/Count))
system.mem_ctrl.dram.avgBusLat                5000.00                       # Average bus latency per DRAM burst ((Tick/Count))
system.mem_ctrl.dram.avgMemAccLat            23261.61                       # Average memory access latency per DRAM burst ((Tick/Count))
system.mem_ctrl.dram.readRowHits                 6214                       # Number of row buffer hits during reads (Count)
system.mem_ctrl.dram.writeRowHits                1341                       # Number of row buffer hits during writes (Count)
system.mem_ctrl.dram.readRowHitRate             91.92                       # Row buffer hit rate for reads (Ratio)
system.mem_ctrl.dram.writeRowHitRate            93.19                       # Row buffer hit rate for writes (Ratio)
system.mem_ctrl.dram.bytesPerActivate::samples          638                       # Bytes accessed per row activation (Byte)
system.mem_ctrl.dram.bytesPerActivate::mean   819.661442                       # Bytes accessed per row activation (Byte)
system.mem_ctrl.dram.bytesPerActivate::gmean   689.935937                       # Bytes accessed per row activation (Byte)
system.mem_ctrl.dram.bytesPerActivate::stdev   323.599591                       # Bytes accessed per row activation (Byte)
system.mem_ctrl.dram.bytesPerActivate::0-127           22      3.45%      3.45% # Bytes accessed per row activation (Byte)
system.mem_ctrl.dram.bytesPerActivate::128-255           50      7.84%     11.29% # Bytes accessed per row activation (Byte)
system.mem_ctrl.dram.bytesPerActivate::256-383           16      2.51%     13.79% # Bytes accessed per row activation (Byte)
system.mem_ctrl.dram.bytesPerActivate::384-511           39      6.11%     19.91% # Bytes accessed per row activation (Byte)
system.mem_ctrl.dram.bytesPerActivate::512-639           26      4.08%     23.98% # Bytes accessed per row activation (Byte)
system.mem_ctrl.dram.bytesPerActivate::640-767           33      5.17%     29.15% # Bytes accessed per row activation (Byte)
system.mem_ctrl.dram.bytesPerActivate::768-895           19      2.98%     32.13% # Bytes accessed per row activation (Byte)
system.mem_ctrl.dram.bytesPerActivate::896-1023           17      2.66%     34.80% # Bytes accessed per row activation (Byte)
system.mem_ctrl.dram.bytesPerActivate::1024-1151          416     65.20%    100.00% # Bytes accessed per row activation (Byte)
system.mem_ctrl.dram.bytesPerActivate::total          638                       # Bytes accessed per row activation (Byte)
system.mem_ctrl.dram.dramBytesRead             432640                       # Total bytes read (Byte)
system.mem_ctrl.dram.dramBytesWritten           92096                       # Total bytes written (Byte)
system.mem_ctrl.dram.avgRdBW               903.069861                       # Average DRAM read bandwidth in MiBytes/s ((Byte/Second))
system.mem_ctrl.dram.avgWrBW               192.236321                       # Average DRAM write bandwidth in MiBytes/s ((Byte/Second))
system.mem_ctrl.dram.peakBW                  12800.00                       # Theoretical peak bandwidth in MiByte/s ((Byte/Second))
system.mem_ctrl.dram.busUtil                     8.56                       # Data bus utilization in percentage (Ratio)
system.mem_ctrl.dram.busUtilRead                 7.06                       # Data bus utilization in percentage for reads (Ratio)
system.mem_ctrl.dram.busUtilWrite                1.50                       # Data bus utilization in percentage for writes (Ratio)
system.mem_ctrl.dram.pageHitRate                92.15                       # Row buffer hit rate, read and write combined (Ratio)
system.mem_ctrl.dram.power_state.pwrStateResidencyTicks::UNDEFINED    479077000                       # Cumulative time (in ticks) in various power states (Tick)
system.mem_ctrl.dram.rank0.actEnergy          1706460                       # Energy for activate commands per rank (pJ) (Joule)
system.mem_ctrl.dram.rank0.preEnergy           884235                       # Energy for precharge commands per rank (pJ) (Joule)
system.mem_ctrl.dram.rank0.readEnergy        14451360                       # Energy for read commands per rank (pJ) (Joule)
system.mem_ctrl.dram.rank0.writeEnergy        2489940                       # Energy for write commands per rank (pJ) (Joule)
system.mem_ctrl.dram.rank0.refreshEnergy 37493040.000000                       # Energy for refresh commands per rank (pJ) (Joule)
system.mem_ctrl.dram.rank0.actBackEnergy    114709650                       # Energy for active background per rank (pJ) (Joule)
system.mem_ctrl.dram.rank0.preBackEnergy     87368160                       # Energy for precharge background per rank (pJ) (Joule)
system.mem_ctrl.dram.rank0.actPowerDownEnergy            0                       # Energy for active power-down per rank (pJ) (Joule)
system.mem_ctrl.dram.rank0.prePowerDownEnergy            0                       # Energy for precharge power-down per rank (pJ) (Joule)
system.mem_ctrl.dram.rank0.selfRefreshEnergy            0                       # Energy for self refresh per rank (pJ) (Joule)
system.mem_ctrl.dram.rank0.totalEnergy      259102845                       # Total energy per rank (pJ) (Joule)
system.mem_ctrl.dram.rank0.averagePower    540.837579                       # Core power per rank (mW) (Watt)
system.mem_ctrl.dram.rank0.totalIdleTime            0                       # Total Idle time Per DRAM Rank (Tick)
system.mem_ctrl.dram.rank0.pwrStateTime::IDLE    225976750                       # Time in different power states (Tick)
system.mem_ctrl.dram.rank0.pwrStateTime::REF     15860000                       # Time in different power states (Tick)
system.mem_ctrl.dram.rank0.pwrStateTime::SREF            0                       # Time in different power states (Tick)
system.mem_ctrl.dram.rank0.pwrStateTime::PRE_PDN            0                       # Time in different power states (Tick)
system.mem_ctrl.dram.rank0.pwrStateTime::ACT    237240250                       # Time in different power states (Tick)
system.mem_ctrl.dram.rank0.pwrStateTime::ACT_PDN            0                       # Time in different power states (Tick)
system.mem_ctrl.dram.rank1.actEnergy          2891700                       # Energy for activate commands per rank (pJ) (Joule)
system.mem_ctrl.dram.rank1.preEnergy          1536975                       # Energy for precharge commands per rank (pJ) (Joule)
system.mem_ctrl.dram.rank1.readEnergy        33815040                       # Energy for read commands per rank (pJ) (Joule)
system.mem_ctrl.dram.rank1.writeEnergy        5021640                       # Energy for write commands per rank (pJ) (Joule)
system.mem_ctrl.dram.rank1.refreshEnergy 37493040.000000                       # Energy for refresh commands per rank (pJ) (Joule)
system.mem_ctrl.dram.rank1.actBackEnergy    194587740                       # Energy for active background per rank (pJ) (Joule)
system.mem_ctrl.dram.rank1.preBackEnergy     20102400                       # Energy for precharge background per rank (pJ) (Joule)
system.mem_ctrl.dram.rank1.actPowerDownEnergy            0                       # Energy for active power-down per rank (pJ) (Joule)
system.mem_ctrl.dram.rank1.prePowerDownEnergy            0                       # Energy for precharge power-down per rank (pJ) (Joule)
system.mem_ctrl.dram.rank1.selfRefreshEnergy            0                       # Energy for self refresh per rank (pJ) (Joule)
system.mem_ctrl.dram.rank1.totalEnergy      295448535                       # Total energy per rank (pJ) (Joule)
system.mem_ctrl.dram.rank1.averagePower    616.703651                       # Core power per rank (mW) (Watt)
system.mem_ctrl.dram.rank1.totalIdleTime            0                       # Total Idle time Per DRAM Rank (Tick)
system.mem_ctrl.dram.rank1.pwrStateTime::IDLE     48129500                       # Time in different power states (Tick)
system.mem_ctrl.dram.rank1.pwrStateTime::REF     15860000                       # Time in different power states (Tick)
system.mem_ctrl.dram.rank1.pwrStateTime::SREF            0                       # Time in different power states (Tick)
system.mem_ctrl.dram.rank1.pwrStateTime::PRE_PDN            0                       # Time in different power states (Tick)
system.mem_ctrl.dram.rank1.pwrStateTime::ACT    415087500                       # Time in different power states (Tick)
system.mem_ctrl.dram.rank1.pwrStateTime::ACT_PDN            0                       # Time in different power states (Tick)
system.mem_ctrl.power_state.pwrStateResidencyTicks::UNDEFINED    479077000                       # Cumulative time (in ticks) in various power states (Tick)
system.membus.transDist::ReadResp                5890                       # Transaction distribution (Count)
system.membus.transDist::WritebackDirty          3654                       # Transaction distribution (Count)
system.membus.transDist::CleanEvict              5718                       # Transaction distribution (Count)
system.membus.transDist::ReadExReq               3514                       # Transaction distribution (Count)
system.membus.transDist::ReadExResp              3514                       # Transaction distribution (Count)
system.membus.transDist::ReadSharedReq           5890                       # Transaction distribution (Count)
system.membus.pktCount_system.cpu.icache.mem_side_port::system.mem_ctrl.port         1385                       # Packet count per connected requestor and responder (Count)
system.membus.pktCount_system.cpu.dcache.mem_side_port::system.mem_ctrl.port        26795                       # Packet count per connected requestor and responder (Count)
system.membus.pktCount::total                   28180                       # Packet count per connected requestor and responder (Count)
system.membus.pktSize_system.cpu.icache.mem_side_port::system.mem_ctrl.port        29888                       # Cumulative packet size per connected requestor and responder (Byte)
system.membus.pktSize_system.cpu.dcache.mem_side_port::system.mem_ctrl.port       805824                       # Cumulative packet size per connected requestor and responder (Byte)
system.membus.pktSize::total                   835712                       # Cumulative packet size per connected requestor and responder (Byte)
system.membus.snoops                                0                       # Total snoops (Count)
system.membus.snoopTraffic                          0                       # Total snoop traffic (Byte)
system.membus.snoopFanout::samples               9404                       # Request fanout histogram (Count)
system.membus.snoopFanout::mean              0.000213                       # Request fanout histogram (Count)
system.membus.snoopFanout::stdev             0.014583                       # Request fanout histogram (Count)
system.membus.snoopFanout::underflows               0      0.00%      0.00% # Request fanout histogram (Count)
system.membus.snoopFanout::0                     9402     99.98%     99.98% # Request fanout histogram (Count)
system.membus.snoopFanout::1                        2      0.02%    100.00% # Request fanout histogram (Count)
system.membus.snoopFanout::2                        0      0.00%    100.00% # Request fanout histogram (Count)
system.membus.snoopFanout::overflows                0      0.00%    100.00% # Request fanout histogram (Count)
system.membus.snoopFanout::min_value                0                       # Request fanout histogram (Count)
system.membus.snoopFanout::max_value                1                       # Request fanout histogram (Count)
system.membus.snoopFanout::total                 9404                       # Request fanout histogram (Count)
system.membus.power_state.pwrStateResidencyTicks::UNDEFINED    479077000                       # Cumulative time (in ticks) in various power states (Tick)
system.membus.reqLayer0.occupancy            33392000                       # Layer occupancy (ticks) (Tick)
system.membus.reqLayer0.utilization               0.1                       # Layer utilization (Ratio)
system.membus.respLayer0.occupancy            2470000                       # Layer occupancy (ticks) (Tick)
system.membus.respLayer0.utilization              0.0                       # Layer utilization (Ratio)
system.membus.respLayer1.occupancy           46384500                       # Layer occupancy (ticks) (Tick)
system.membus.respLayer1.utilization              0.1                       # Layer utilization (Ratio)
system.membus.snoop_filter.totRequests          18776                       # Total number of requests made to the snoop filter. (Count)
system.membus.snoop_filter.hitSingleRequests         9372                       # Number of requests hitting in the snoop filter with a single holder of the requested data. (Count)
system.membus.snoop_filter.hitMultiRequests            2                       # Number of requests hitting in the snoop filter with multiple (>1) holders of the requested data. (Count)
system.membus.snoop_filter.totSnoops                0                       # Total number of snoops made to the snoop filter. (Count)
system.membus.snoop_filter.hitSingleSnoops            0                       # Number of snoops hitting in the snoop filter with a single holder of the requested data. (Count)
system.membus.snoop_filter.hitMultiSnoops            0                       # Number of snoops hitting in the snoop filter with multiple (>1) holders of the requested data. (Count)
system.workload.inst.arm                            0                       # number of arm instructions executed (Count)
system.workload.inst.quiesce                        0                       # number of quiesce instructions executed (Count)

---------- End Simulation Statistics   ----------
